
     RDKit          2D

  8  7  0  0  0  0  0  0  0  0999 V2000
    4.2551   -0.1865    0.0000 N   0  0  0  0  0  0  0  0  0  0  0  0
    2.8948    0.4455    0.0000 C   0  0  0  0  0  0  0  0  0  0  0  0
    1.6672   -0.4165    0.0000 C   0  0  0  0  0  0  0  0  0  0  0  0
    0.3069    0.2155    0.0000 N   0  0  0  0  0  0  0  0  0  0  0  0
   -0.9207   -0.6465    0.0000 C   0  0  0  0  0  0  0  0  0  0  0  0
   -2.2810   -0.0145    0.0000 C   0  0  0  0  0  0  0  0  0  0  0  0
   -2.4138    1.4796    0.0000 O   0  0  0  0  0  0  0  0  0  0  0  0
   -3.5085   -0.8766    0.0000 O   0  0  0  0  0  0  0  0  0  0  0  0
  1  2  1  0
  2  3  1  0
  3  4  1  0
  4  5  1  0
  5  6  1  0
  6  7  2  0
  6  8  1  0
M  END
