
     RDKit          2D

 37 40  0  0  0  0  0  0  0  0999 V2000
   -9.6041   -2.1858    0.0000 C   0  0  0  0  0  0  0  0  0  0  0  0
   -8.1137   -2.0166    0.0000 C   0  0  0  0  0  0  0  0  0  0  0  0
   -7.5150   -0.6412    0.0000 C   0  0  0  0  0  0  0  0  0  0  0  0
   -6.0246   -0.4720    0.0000 N   0  0  0  0  0  0  0  0  0  0  0  0
   -5.4259    0.9034    0.0000 C   0  0  0  0  0  0  0  0  0  0  0  0
   -3.9355    1.0726    0.0000 C   0  0  0  0  0  0  0  0  0  0  0  0
   -3.0437   -0.1336    0.0000 O   0  0  0  0  0  0  0  0  0  0  0  0
   -3.3368    2.4479    0.0000 N   0  0  0  0  0  0  0  0  0  0  0  0
   -1.8464    2.6171    0.0000 C   0  0  0  0  0  0  0  0  0  0  0  0
   -0.9546    1.4110    0.0000 C   0  0  0  0  0  0  0  0  0  0  0  0
    0.5358    1.5802    0.0000 N   0  0  0  0  0  0  0  0  0  0  0  0
    1.4275    0.3741    0.0000 C   0  0  0  0  0  0  0  0  0  0  0  0
    0.8289   -1.0013    0.0000 O   0  0  0  0  0  0  0  0  0  0  0  0
    2.9180    0.5433    0.0000 O   0  0  0  0  0  0  0  0  0  0  0  0
    3.8097   -0.6628    0.0000 C   0  0  0  0  0  0  0  0  0  0  0  0
    5.3001   -0.4936    0.0000 C   0  0  0  0  0  0  0  0  0  0  0  0
    6.3131   -1.5999    0.0000 C   0  0  0  0  0  0  0  0  0  0  0  0
    6.1687   -3.0930    0.0000 C   0  0  0  0  0  0  0  0  0  0  0  0
    7.3896   -3.9645    0.0000 C   0  0  0  0  0  0  0  0  0  0  0  0
    8.7548   -3.3430    0.0000 C   0  0  0  0  0  0  0  0  0  0  0  0
    8.8991   -1.8500    0.0000 C   0  0  0  0  0  0  0  0  0  0  0  0
    7.6783   -0.9784    0.0000 C   0  0  0  0  0  0  0  0  0  0  0  0
    7.5091    0.5120    0.0000 C   0  0  0  0  0  0  0  0  0  0  0  0
    8.5034    1.6350    0.0000 C   0  0  0  0  0  0  0  0  0  0  0  0
    8.0280    3.0577    0.0000 C   0  0  0  0  0  0  0  0  0  0  0  0
    6.5583    3.3573    0.0000 C   0  0  0  0  0  0  0  0  0  0  0  0
    5.5639    2.2343    0.0000 C   0  0  0  0  0  0  0  0  0  0  0  0
    6.0393    0.8116    0.0000 C   0  0  0  0  0  0  0  0  0  0  0  0
   -4.2286    3.6541    0.0000 C   0  0  0  0  0  0  0  0  0  0  0  0
   -5.7190    3.4848    0.0000 C   0  0  0  0  0  0  0  0  0  0  0  0
   -6.3177    2.1095    0.0000 O   0  0  0  0  0  0  0  0  0  0  0  0
   -6.6108    4.6910    0.0000 O   0  0  0  0  0  0  0  0  0  0  0  0
   -5.1328   -1.6781    0.0000 C   0  0  0  0  0  0  0  0  0  0  0  0
   -3.6424   -1.5089    0.0000 O   0  0  0  0  0  0  0  0  0  0  0  0
   -5.7315   -3.0535    0.0000 N   0  0  0  0  0  0  0  0  0  0  0  0
   -7.2219   -3.2227    0.0000 C   0  0  0  0  0  0  0  0  0  0  0  0
   -7.8206   -4.5981    0.0000 O   0  0  0  0  0  0  0  0  0  0  0  0
  1  2  1  0
  2  3  2  0
  3  4  1  0
  4  5  1  0
  5  6  1  0
  6  7  2  0
  6  8  1  0
  8  9  1  0
  9 10  1  0
 10 11  1  0
 11 12  1  0
 12 13  2  0
 12 14  1  0
 14 15  1  0
 15 16  1  0
 16 17  1  0
 17 18  2  0
 18 19  1  0
 19 20  2  0
 20 21  1  0
 21 22  2  0
 22 23  1  0
 23 24  2  0
 24 25  1  0
 25 26  2  0
 26 27  1  0
 27 28  2  0
  8 29  1  0
 29 30  1  0
 30 31  2  0
 30 32  1  0
  4 33  1  0
 33 34  2  0
 33 35  1  0
 35 36  1  0
 36 37  2  0
 36  2  1  0
 28 16  1  0
 22 17  1  0
 28 23  1  0
M  END
