
     RDKit          2D

 54 60  0  0  0  0  0  0  0  0999 V2000
   -0.5977    4.7138    0.0000 O   0  0  0  0  0  0  0  0  0  0  0  0
    0.4316    5.8049    0.0000 C   0  0  0  0  0  0  0  0  0  0  0  0
    0.0015    7.2419    0.0000 O   0  0  0  0  0  0  0  0  0  0  0  0
    1.8912    5.4589    0.0000 C   0  0  0  0  0  0  0  0  0  0  0  0
    2.3214    4.0219    0.0000 N   0  0  0  0  0  0  0  0  0  0  0  0
    3.7809    3.6760    0.0000 C   0  0  0  0  0  0  0  0  0  0  0  0
    4.2111    2.2390    0.0000 C   0  0  0  0  0  0  0  0  0  0  0  0
    5.6707    1.8930    0.0000 N   0  0  0  0  0  0  0  0  0  0  0  0
    6.1009    0.4560    0.0000 C   0  0  0  0  0  0  0  0  0  0  0  0
    5.0715   -0.6350    0.0000 O   0  0  0  0  0  0  0  0  0  0  0  0
    7.5604    0.1101    0.0000 O   0  0  0  0  0  0  0  0  0  0  0  0
    7.9906   -1.3269    0.0000 C   0  0  0  0  0  0  0  0  0  0  0  0
    9.4501   -1.6729    0.0000 C   0  0  0  0  0  0  0  0  0  0  0  0
   10.0282   -3.0570    0.0000 C   0  0  0  0  0  0  0  0  0  0  0  0
    9.3863   -4.4128    0.0000 C   0  0  0  0  0  0  0  0  0  0  0  0
   10.2395   -5.6465    0.0000 C   0  0  0  0  0  0  0  0  0  0  0  0
   11.7345   -5.5245    0.0000 C   0  0  0  0  0  0  0  0  0  0  0  0
   12.3764   -4.1687    0.0000 C   0  0  0  0  0  0  0  0  0  0  0  0
   11.5232   -2.9350    0.0000 C   0  0  0  0  0  0  0  0  0  0  0  0
   11.8692   -1.4755    0.0000 C   0  0  0  0  0  0  0  0  0  0  0  0
   13.1853   -0.7559    0.0000 C   0  0  0  0  0  0  0  0  0  0  0  0
   13.2202    0.7437    0.0000 C   0  0  0  0  0  0  0  0  0  0  0  0
   11.9390    1.5237    0.0000 C   0  0  0  0  0  0  0  0  0  0  0  0
   10.6229    0.8042    0.0000 C   0  0  0  0  0  0  0  0  0  0  0  0
   10.5879   -0.6954    0.0000 C   0  0  0  0  0  0  0  0  0  0  0  0
    1.2920    2.9309    0.0000 C   0  0  0  0  0  0  0  0  0  0  0  0
    1.7222    1.4939    0.0000 O   0  0  0  0  0  0  0  0  0  0  0  0
   -0.1676    3.2768    0.0000 C   0  0  0  0  0  0  0  0  0  0  0  0
   -1.1969    2.1858    0.0000 N   0  0  0  0  0  0  0  0  0  0  0  0
   -0.9193    0.7117    0.0000 C   0  0  0  0  0  0  0  0  0  0  0  0
   -2.2355   -0.0078    0.0000 N   0  0  0  0  0  0  0  0  0  0  0  0
   -3.3265    1.0216    0.0000 C   0  0  0  0  0  0  0  0  0  0  0  0
   -4.8216    0.8996    0.0000 C   0  0  0  0  0  0  0  0  0  0  0  0
   -5.4634   -0.4562    0.0000 N   0  0  0  0  0  0  0  0  0  0  0  0
   -6.9584   -0.5782    0.0000 C   0  0  0  0  0  0  0  0  0  0  0  0
   -7.8116    0.6555    0.0000 O   0  0  0  0  0  0  0  0  0  0  0  0
   -7.6003   -1.9339    0.0000 O   0  0  0  0  0  0  0  0  0  0  0  0
   -9.0953   -2.0559    0.0000 C   0  0  0  0  0  0  0  0  0  0  0  0
   -9.7372   -3.4117    0.0000 C   0  0  0  0  0  0  0  0  0  0  0  0
  -11.2322   -3.5337    0.0000 C   0  0  0  0  0  0  0  0  0  0  0  0
  -11.8741   -4.8894    0.0000 C   0  0  0  0  0  0  0  0  0  0  0  0
  -11.0209   -6.1232    0.0000 C   0  0  0  0  0  0  0  0  0  0  0  0
   -9.5259   -6.0011    0.0000 C   0  0  0  0  0  0  0  0  0  0  0  0
   -8.8840   -4.6454    0.0000 C   0  0  0  0  0  0  0  0  0  0  0  0
   -9.9485   -0.8222    0.0000 C   0  0  0  0  0  0  0  0  0  0  0  0
   -9.3066    0.5335    0.0000 C   0  0  0  0  0  0  0  0  0  0  0  0
  -10.1598    1.7673    0.0000 C   0  0  0  0  0  0  0  0  0  0  0  0
  -11.6549    1.6453    0.0000 C   0  0  0  0  0  0  0  0  0  0  0  0
  -12.2967    0.2895    0.0000 C   0  0  0  0  0  0  0  0  0  0  0  0
  -11.4435   -0.9442    0.0000 C   0  0  0  0  0  0  0  0  0  0  0  0
   -5.6747    2.1333    0.0000 N   0  0  0  0  0  0  0  0  0  0  0  0
   -5.0329    3.4890    0.0000 C   0  0  0  0  0  0  0  0  0  0  0  0
   -3.5379    3.6110    0.0000 N   0  0  0  0  0  0  0  0  0  0  0  0
   -2.6847    2.3773    0.0000 C   0  0  0  0  0  0  0  0  0  0  0  0
  1  2  2  0
  2  3  1  0
  2  4  1  0
  4  5  1  0
  5  6  1  0
  6  7  1  0
  7  8  1  0
  8  9  1  0
  9 10  2  0
  9 11  1  0
 11 12  1  0
 12 13  1  0
 13 14  1  0
 14 15  2  0
 15 16  1  0
 16 17  2  0
 17 18  1  0
 18 19  2  0
 19 20  1  0
 20 21  2  0
 21 22  1  0
 22 23  2  0
 23 24  1  0
 24 25  2  0
  5 26  1  0
 26 27  2  0
 26 28  1  0
 28 29  1  0
 29 30  1  0
 30 31  2  0
 31 32  1  0
 32 33  2  0
 33 34  1  0
 34 35  1  0
 35 36  2  0
 35 37  1  0
 37 38  1  0
 38 39  1  0
 39 40  2  0
 40 41  1  0
 41 42  2  0
 42 43  1  0
 43 44  2  0
 38 45  1  0
 45 46  2  0
 46 47  1  0
 47 48  2  0
 48 49  1  0
 49 50  2  0
 33 51  1  0
 51 52  2  0
 52 53  1  0
 53 54  2  0
 25 13  1  0
 54 29  1  0
 19 14  1  0
 25 20  1  0
 54 32  1  0
 44 39  1  0
 50 45  1  0
M  END
