
     RDKit          2D

 52 57  0  0  0  0  0  0  0  0999 V2000
   -1.3700    4.6204    0.0000 O   0  0  0  0  0  0  0  0  0  0  0  0
   -0.3723    5.7405    0.0000 C   0  0  0  0  0  0  0  0  0  0  0  0
   -0.8434    7.1646    0.0000 O   0  0  0  0  0  0  0  0  0  0  0  0
    1.0966    5.4365    0.0000 C   0  0  0  0  0  0  0  0  0  0  0  0
    1.5677    4.0124    0.0000 N   0  0  0  0  0  0  0  0  0  0  0  0
    3.0366    3.7084    0.0000 C   0  0  0  0  0  0  0  0  0  0  0  0
    3.5078    2.2843    0.0000 C   0  0  0  0  0  0  0  0  0  0  0  0
    4.9766    1.9803    0.0000 N   0  0  0  0  0  0  0  0  0  0  0  0
    5.4478    0.5562    0.0000 C   0  0  0  0  0  0  0  0  0  0  0  0
    4.4501   -0.5639    0.0000 O   0  0  0  0  0  0  0  0  0  0  0  0
    6.9166    0.2522    0.0000 O   0  0  0  0  0  0  0  0  0  0  0  0
    7.3878   -1.1719    0.0000 C   0  0  0  0  0  0  0  0  0  0  0  0
    8.8567   -1.4759    0.0000 C   0  0  0  0  0  0  0  0  0  0  0  0
    9.4741   -2.8430    0.0000 C   0  0  0  0  0  0  0  0  0  0  0  0
    8.8713   -4.2165    0.0000 C   0  0  0  0  0  0  0  0  0  0  0  0
    9.7595   -5.4253    0.0000 C   0  0  0  0  0  0  0  0  0  0  0  0
   11.2504   -5.2605    0.0000 C   0  0  0  0  0  0  0  0  0  0  0  0
   11.8532   -3.8870    0.0000 C   0  0  0  0  0  0  0  0  0  0  0  0
   10.9650   -2.6782    0.0000 C   0  0  0  0  0  0  0  0  0  0  0  0
   11.2690   -1.2093    0.0000 C   0  0  0  0  0  0  0  0  0  0  0  0
   12.5640   -0.4524    0.0000 C   0  0  0  0  0  0  0  0  0  0  0  0
   12.5560    1.0476    0.0000 C   0  0  0  0  0  0  0  0  0  0  0  0
   11.2530    1.7906    0.0000 C   0  0  0  0  0  0  0  0  0  0  0  0
    9.9580    1.0337    0.0000 C   0  0  0  0  0  0  0  0  0  0  0  0
    9.9660   -0.4663    0.0000 C   0  0  0  0  0  0  0  0  0  0  0  0
    0.5700    2.8923    0.0000 C   0  0  0  0  0  0  0  0  0  0  0  0
    1.0412    1.4682    0.0000 O   0  0  0  0  0  0  0  0  0  0  0  0
   -0.8988    3.1963    0.0000 C   0  0  0  0  0  0  0  0  0  0  0  0
   -1.8966    2.0763    0.0000 N   0  0  0  0  0  0  0  0  0  0  0  0
   -3.3654    2.3803    0.0000 C   0  0  0  0  0  0  0  0  0  0  0  0
   -4.3632    1.2602    0.0000 C   0  0  0  0  0  0  0  0  0  0  0  0
   -3.8920   -0.1639    0.0000 C   0  0  0  0  0  0  0  0  0  0  0  0
   -4.8897   -1.2840    0.0000 N   0  0  0  0  0  0  0  0  0  0  0  0
   -6.3586   -0.9799    0.0000 C   0  0  0  0  0  0  0  0  0  0  0  0
   -6.8297    0.4441    0.0000 O   0  0  0  0  0  0  0  0  0  0  0  0
   -7.3563   -2.1000    0.0000 O   0  0  0  0  0  0  0  0  0  0  0  0
   -8.8252   -1.7960    0.0000 C   0  0  0  0  0  0  0  0  0  0  0  0
   -9.8229   -2.9161    0.0000 C   0  0  0  0  0  0  0  0  0  0  0  0
  -11.2918   -2.6121    0.0000 C   0  0  0  0  0  0  0  0  0  0  0  0
  -12.2895   -3.7321    0.0000 C   0  0  0  0  0  0  0  0  0  0  0  0
  -11.8183   -5.1562    0.0000 C   0  0  0  0  0  0  0  0  0  0  0  0
  -10.3495   -5.4602    0.0000 C   0  0  0  0  0  0  0  0  0  0  0  0
   -9.3517   -4.3401    0.0000 C   0  0  0  0  0  0  0  0  0  0  0  0
   -9.2963   -0.3719    0.0000 C   0  0  0  0  0  0  0  0  0  0  0  0
   -8.2986    0.7482    0.0000 C   0  0  0  0  0  0  0  0  0  0  0  0
   -8.7698    2.1722    0.0000 C   0  0  0  0  0  0  0  0  0  0  0  0
  -10.2386    2.4763    0.0000 C   0  0  0  0  0  0  0  0  0  0  0  0
  -11.2363    1.3562    0.0000 C   0  0  0  0  0  0  0  0  0  0  0  0
  -10.7652   -0.0679    0.0000 C   0  0  0  0  0  0  0  0  0  0  0  0
   -2.4231   -0.4679    0.0000 N   0  0  0  0  0  0  0  0  0  0  0  0
   -1.4254    0.6522    0.0000 C   0  0  0  0  0  0  0  0  0  0  0  0
    0.0435    0.3482    0.0000 O   0  0  0  0  0  0  0  0  0  0  0  0
  1  2  2  0
  2  3  1  0
  2  4  1  0
  4  5  1  0
  5  6  1  0
  6  7  1  0
  7  8  1  0
  8  9  1  0
  9 10  2  0
  9 11  1  0
 11 12  1  0
 12 13  1  0
 13 14  1  0
 14 15  2  0
 15 16  1  0
 16 17  2  0
 17 18  1  0
 18 19  2  0
 19 20  1  0
 20 21  2  0
 21 22  1  0
 22 23  2  0
 23 24  1  0
 24 25  2  0
  5 26  1  0
 26 27  2  0
 26 28  1  0
 28 29  1  0
 29 30  1  0
 30 31  2  0
 31 32  1  0
 32 33  1  0
 33 34  1  0
 34 35  2  0
 34 36  1  0
 36 37  1  0
 37 38  1  0
 38 39  2  0
 39 40  1  0
 40 41  2  0
 41 42  1  0
 42 43  2  0
 37 44  1  0
 44 45  2  0
 45 46  1  0
 46 47  2  0
 47 48  1  0
 48 49  2  0
 32 50  2  0
 50 51  1  0
 51 52  2  0
 25 13  1  0
 51 29  1  0
 19 14  1  0
 25 20  1  0
 43 38  1  0
 49 44  1  0
M  END
