
     RDKit          2D

 55 61  0  0  0  0  0  0  0  0999 V2000
   -2.3860    0.1208    0.0000 O   0  0  0  0  0  0  0  0  0  0  0  0
   -2.1018    1.5936    0.0000 C   0  0  0  0  0  0  0  0  0  0  0  0
   -3.2352    2.5762    0.0000 O   0  0  0  0  0  0  0  0  0  0  0  0
   -0.6842    2.0838    0.0000 C   0  0  0  0  0  0  0  0  0  0  0  0
    0.4492    1.1013    0.0000 N   0  0  0  0  0  0  0  0  0  0  0  0
    1.8668    1.5915    0.0000 C   0  0  0  0  0  0  0  0  0  0  0  0
    3.0002    0.6089    0.0000 C   0  0  0  0  0  0  0  0  0  0  0  0
    4.4178    1.0992    0.0000 N   0  0  0  0  0  0  0  0  0  0  0  0
    5.5512    0.1166    0.0000 C   0  0  0  0  0  0  0  0  0  0  0  0
    5.2670   -1.3562    0.0000 O   0  0  0  0  0  0  0  0  0  0  0  0
    6.9688    0.6069    0.0000 O   0  0  0  0  0  0  0  0  0  0  0  0
    8.1022   -0.3757    0.0000 C   0  0  0  0  0  0  0  0  0  0  0  0
    9.5198    0.1146    0.0000 C   0  0  0  0  0  0  0  0  0  0  0  0
   10.7497   -0.7442    0.0000 C   0  0  0  0  0  0  0  0  0  0  0  0
   10.9345   -2.2327    0.0000 C   0  0  0  0  0  0  0  0  0  0  0  0
   12.3161   -2.8170    0.0000 C   0  0  0  0  0  0  0  0  0  0  0  0
   13.5128   -1.9127    0.0000 C   0  0  0  0  0  0  0  0  0  0  0  0
   13.3280   -0.4241    0.0000 C   0  0  0  0  0  0  0  0  0  0  0  0
   11.9465    0.1602    0.0000 C   0  0  0  0  0  0  0  0  0  0  0  0
   11.4562    1.5778    0.0000 C   0  0  0  0  0  0  0  0  0  0  0  0
   12.1817    2.8907    0.0000 C   0  0  0  0  0  0  0  0  0  0  0  0
   11.4074    4.1754    0.0000 C   0  0  0  0  0  0  0  0  0  0  0  0
    9.9077    4.1472    0.0000 C   0  0  0  0  0  0  0  0  0  0  0  0
    9.1822    2.8343    0.0000 C   0  0  0  0  0  0  0  0  0  0  0  0
    9.9565    1.5496    0.0000 C   0  0  0  0  0  0  0  0  0  0  0  0
    0.1650   -0.3716    0.0000 C   0  0  0  0  0  0  0  0  0  0  0  0
    1.2983   -1.3541    0.0000 O   0  0  0  0  0  0  0  0  0  0  0  0
   -1.2527   -0.8618    0.0000 C   0  0  0  0  0  0  0  0  0  0  0  0
   -1.5369   -2.3346    0.0000 N   0  0  0  0  0  0  0  0  0  0  0  0
   -0.5124   -3.4303    0.0000 C   0  0  0  0  0  0  0  0  0  0  0  0
   -1.2379   -4.7432    0.0000 N   0  0  0  0  0  0  0  0  0  0  0  0
   -2.7107   -4.4590    0.0000 C   0  0  0  0  0  0  0  0  0  0  0  0
   -3.9075   -5.3633    0.0000 C   0  0  0  0  0  0  0  0  0  0  0  0
   -3.7227   -6.8518    0.0000 O   0  0  0  0  0  0  0  0  0  0  0  0
   -5.2890   -4.7790    0.0000 N   0  0  0  0  0  0  0  0  0  0  0  0
   -5.4738   -3.2905    0.0000 C   0  0  0  0  0  0  0  0  0  0  0  0
   -6.8553   -2.7062    0.0000 N   0  0  0  0  0  0  0  0  0  0  0  0
   -7.0401   -1.2176    0.0000 C   0  0  0  0  0  0  0  0  0  0  0  0
   -5.8434   -0.3133    0.0000 O   0  0  0  0  0  0  0  0  0  0  0  0
   -8.4217   -0.6334    0.0000 O   0  0  0  0  0  0  0  0  0  0  0  0
   -8.6065    0.8552    0.0000 C   0  0  0  0  0  0  0  0  0  0  0  0
   -9.9880    1.4394    0.0000 C   0  0  0  0  0  0  0  0  0  0  0  0
  -10.1728    2.9280    0.0000 C   0  0  0  0  0  0  0  0  0  0  0  0
  -11.5544    3.5123    0.0000 C   0  0  0  0  0  0  0  0  0  0  0  0
  -12.7511    2.6079    0.0000 C   0  0  0  0  0  0  0  0  0  0  0  0
  -12.5663    1.1194    0.0000 C   0  0  0  0  0  0  0  0  0  0  0  0
  -11.1848    0.5351    0.0000 C   0  0  0  0  0  0  0  0  0  0  0  0
   -7.4097    1.7595    0.0000 C   0  0  0  0  0  0  0  0  0  0  0  0
   -6.0282    1.1753    0.0000 C   0  0  0  0  0  0  0  0  0  0  0  0
   -4.8314    2.0796    0.0000 C   0  0  0  0  0  0  0  0  0  0  0  0
   -5.0162    3.5682    0.0000 C   0  0  0  0  0  0  0  0  0  0  0  0
   -6.3978    4.1524    0.0000 C   0  0  0  0  0  0  0  0  0  0  0  0
   -7.5945    3.2481    0.0000 C   0  0  0  0  0  0  0  0  0  0  0  0
   -4.2771   -2.3861    0.0000 N   0  0  0  0  0  0  0  0  0  0  0  0
   -2.8955   -2.9704    0.0000 C   0  0  0  0  0  0  0  0  0  0  0  0
  1  2  2  0
  2  3  1  0
  2  4  1  0
  4  5  1  0
  5  6  1  0
  6  7  1  0
  7  8  1  0
  8  9  1  0
  9 10  2  0
  9 11  1  0
 11 12  1  0
 12 13  1  0
 13 14  1  0
 14 15  2  0
 15 16  1  0
 16 17  2  0
 17 18  1  0
 18 19  2  0
 19 20  1  0
 20 21  2  0
 21 22  1  0
 22 23  2  0
 23 24  1  0
 24 25  2  0
  5 26  1  0
 26 27  2  0
 26 28  1  0
 28 29  1  0
 29 30  1  0
 30 31  2  0
 31 32  1  0
 32 33  1  0
 33 34  2  0
 33 35  1  0
 35 36  1  0
 36 37  1  0
 37 38  1  0
 38 39  2  0
 38 40  1  0
 40 41  1  0
 41 42  1  0
 42 43  2  0
 43 44  1  0
 44 45  2  0
 45 46  1  0
 46 47  2  0
 41 48  1  0
 48 49  2  0
 49 50  1  0
 50 51  2  0
 51 52  1  0
 52 53  2  0
 36 54  2  0
 54 55  1  0
 25 13  1  0
 55 29  1  0
 19 14  1  0
 25 20  1  0
 55 32  2  0
 47 42  1  0
 53 48  1  0
M  END
