
     RDKit          2D

 25 27  0  0  0  0  0  0  0  0999 V2000
   -9.2408   -1.4428    0.0000 O   0  0  0  0  0  0  0  0  0  0  0  0
   -9.0843    0.0490    0.0000 C   0  0  0  0  0  0  0  0  0  0  0  0
  -10.2980    0.9305    0.0000 O   0  0  0  0  0  0  0  0  0  0  0  0
   -7.7141    0.6594    0.0000 C   0  0  0  0  0  0  0  0  0  0  0  0
   -6.5004   -0.2221    0.0000 N   0  0  0  0  0  0  0  0  0  0  0  0
   -5.1302    0.3883    0.0000 C   0  0  0  0  0  0  0  0  0  0  0  0
   -3.9165   -0.4932    0.0000 C   0  0  0  0  0  0  0  0  0  0  0  0
   -2.5463    0.1172    0.0000 N   0  0  0  0  0  0  0  0  0  0  0  0
   -1.3326   -0.7643    0.0000 C   0  0  0  0  0  0  0  0  0  0  0  0
   -1.4891   -2.2561    0.0000 O   0  0  0  0  0  0  0  0  0  0  0  0
    0.0376   -0.1539    0.0000 O   0  0  0  0  0  0  0  0  0  0  0  0
    1.2513   -1.0354    0.0000 C   0  0  0  0  0  0  0  0  0  0  0  0
    2.6215   -0.4250    0.0000 C   0  0  0  0  0  0  0  0  0  0  0  0
    3.9207   -1.1748    0.0000 C   0  0  0  0  0  0  0  0  0  0  0  0
    4.2328   -2.6419    0.0000 C   0  0  0  0  0  0  0  0  0  0  0  0
    5.6595   -3.1052    0.0000 C   0  0  0  0  0  0  0  0  0  0  0  0
    6.7740   -2.1013    0.0000 C   0  0  0  0  0  0  0  0  0  0  0  0
    6.4619   -0.6341    0.0000 C   0  0  0  0  0  0  0  0  0  0  0  0
    5.0352   -0.1709    0.0000 C   0  0  0  0  0  0  0  0  0  0  0  0
    4.4249    1.1994    0.0000 C   0  0  0  0  0  0  0  0  0  0  0  0
    5.0347    2.5698    0.0000 C   0  0  0  0  0  0  0  0  0  0  0  0
    4.1528    3.7831    0.0000 C   0  0  0  0  0  0  0  0  0  0  0  0
    2.6610    3.6261    0.0000 C   0  0  0  0  0  0  0  0  0  0  0  0
    2.0512    2.2556    0.0000 C   0  0  0  0  0  0  0  0  0  0  0  0
    2.9331    1.0423    0.0000 C   0  0  0  0  0  0  0  0  0  0  0  0
  1  2  2  0
  2  3  1  0
  2  4  1  0
  4  5  1  0
  5  6  1  0
  6  7  1  0
  7  8  1  0
  8  9  1  0
  9 10  2  0
  9 11  1  0
 11 12  1  0
 12 13  1  0
 13 14  1  0
 14 15  2  0
 15 16  1  0
 16 17  2  0
 17 18  1  0
 18 19  2  0
 19 20  1  0
 20 21  2  0
 21 22  1  0
 22 23  2  0
 23 24  1  0
 24 25  2  0
 25 13  1  0
 19 14  1  0
 25 20  1  0
M  END
