
     RDKit          2D

 46 50  0  0  0  0  0  0  0  0999 V2000
   -9.0672    4.6015    0.0000 C   0  0  0  0  0  0  0  0  0  0  0  0
   -8.8772    3.1135    0.0000 C   0  0  0  0  0  0  0  0  0  0  0  0
  -10.0707    2.2050    0.0000 C   0  0  0  0  0  0  0  0  0  0  0  0
  -11.4543    2.7844    0.0000 C   0  0  0  0  0  0  0  0  0  0  0  0
   -9.8807    0.7171    0.0000 C   0  0  0  0  0  0  0  0  0  0  0  0
   -8.4971    0.1377    0.0000 C   0  0  0  0  0  0  0  0  0  0  0  0
   -7.3036    1.0462    0.0000 C   0  0  0  0  0  0  0  0  0  0  0  0
   -5.9200    0.4668    0.0000 S   0  0  0  0  0  0  0  0  0  0  0  0
   -6.4994   -0.9168    0.0000 O   0  0  0  0  0  0  0  0  0  0  0  0
   -5.3406    1.8504    0.0000 O   0  0  0  0  0  0  0  0  0  0  0  0
   -4.5364   -0.1126    0.0000 N   0  0  0  0  0  0  0  0  0  0  0  0
   -4.3464   -1.6005    0.0000 C   0  0  0  0  0  0  0  0  0  0  0  0
   -5.5400   -2.5090    0.0000 N   0  0  0  0  0  0  0  0  0  0  0  0
   -2.9628   -2.1799    0.0000 N   0  0  0  0  0  0  0  0  0  0  0  0
   -1.7693   -1.2714    0.0000 C   0  0  0  0  0  0  0  0  0  0  0  0
   -0.3857   -1.8508    0.0000 C   0  0  0  0  0  0  0  0  0  0  0  0
    0.8079   -0.9423    0.0000 C   0  0  0  0  0  0  0  0  0  0  0  0
    2.1915   -1.5217    0.0000 C   0  0  0  0  0  0  0  0  0  0  0  0
    3.3850   -0.6132    0.0000 N   0  0  0  0  0  0  0  0  0  0  0  0
    4.7686   -1.1926    0.0000 C   0  0  0  0  0  0  0  0  0  0  0  0
    4.9586   -2.6805    0.0000 O   0  0  0  0  0  0  0  0  0  0  0  0
    5.9622   -0.2841    0.0000 O   0  0  0  0  0  0  0  0  0  0  0  0
    7.3458   -0.8635    0.0000 C   0  0  0  0  0  0  0  0  0  0  0  0
    8.5393    0.0450    0.0000 C   0  0  0  0  0  0  0  0  0  0  0  0
    9.9759   -0.3866    0.0000 C   0  0  0  0  0  0  0  0  0  0  0  0
   10.6164   -1.7430    0.0000 C   0  0  0  0  0  0  0  0  0  0  0  0
   12.1113   -1.8665    0.0000 C   0  0  0  0  0  0  0  0  0  0  0  0
   12.9657   -0.6336    0.0000 C   0  0  0  0  0  0  0  0  0  0  0  0
   12.3252    0.7228    0.0000 C   0  0  0  0  0  0  0  0  0  0  0  0
   10.8303    0.8463    0.0000 C   0  0  0  0  0  0  0  0  0  0  0  0
    9.9218    2.0398    0.0000 C   0  0  0  0  0  0  0  0  0  0  0  0
   10.2009    3.5136    0.0000 C   0  0  0  0  0  0  0  0  0  0  0  0
    9.0641    4.4922    0.0000 C   0  0  0  0  0  0  0  0  0  0  0  0
    7.6482    3.9970    0.0000 C   0  0  0  0  0  0  0  0  0  0  0  0
    7.3691    2.5232    0.0000 C   0  0  0  0  0  0  0  0  0  0  0  0
    8.5059    1.5446    0.0000 C   0  0  0  0  0  0  0  0  0  0  0  0
    2.3815   -3.0096    0.0000 C   0  0  0  0  0  0  0  0  0  0  0  0
    3.7650   -3.5890    0.0000 O   0  0  0  0  0  0  0  0  0  0  0  0
    1.1879   -3.9181    0.0000 O   0  0  0  0  0  0  0  0  0  0  0  0
   -7.4936    2.5341    0.0000 C   0  0  0  0  0  0  0  0  0  0  0  0
   -6.3000    3.4426    0.0000 C   0  0  0  0  0  0  0  0  0  0  0  0
   -8.6206   -1.3572    0.0000 O   0  0  0  0  0  0  0  0  0  0  0  0
  -10.0806   -1.7017    0.0000 C   0  0  0  0  0  0  0  0  0  0  0  0
   -9.5853   -3.1176    0.0000 C   0  0  0  0  0  0  0  0  0  0  0  0
  -11.4369   -2.3422    0.0000 C   0  0  0  0  0  0  0  0  0  0  0  0
  -10.8593   -0.4197    0.0000 C   0  0  0  0  0  0  0  0  0  0  0  0
  1  2  1  0
  2  3  2  0
  3  4  1  0
  3  5  1  0
  5  6  2  0
  6  7  1  0
  7  8  1  0
  8  9  2  0
  8 10  2  0
  8 11  1  0
 11 12  1  0
 12 13  2  0
 12 14  1  0
 14 15  1  0
 15 16  1  0
 16 17  1  0
 17 18  1  0
 18 19  1  0
 19 20  1  0
 20 21  2  0
 20 22  1  0
 22 23  1  0
 23 24  1  0
 24 25  1  0
 25 26  2  0
 26 27  1  0
 27 28  2  0
 28 29  1  0
 29 30  2  0
 30 31  1  0
 31 32  2  0
 32 33  1  0
 33 34  2  0
 34 35  1  0
 35 36  2  0
 18 37  1  0
 37 38  2  0
 37 39  1  0
  7 40  2  0
 40 41  1  0
  6 42  1  0
 42 43  1  0
 43 44  1  0
 43 45  1  0
 43 46  1  0
 40  2  1  0
 46  5  1  0
 36 24  1  0
 30 25  1  0
 36 31  1  0
M  END
