
     RDKit          2D

 10  9  0  0  0  0  0  0  0  0999 V2000
    4.2589    0.5376    0.0000 C   0  0  0  0  0  0  0  0  0  0  0  0
    3.0182   -0.3053    0.0000 C   0  0  0  0  0  0  0  0  0  0  0  0
    1.6678    0.3478    0.0000 O   0  0  0  0  0  0  0  0  0  0  0  0
    0.4270   -0.4951    0.0000 C   0  0  0  0  0  0  0  0  0  0  0  0
    0.5366   -1.9911    0.0000 O   0  0  0  0  0  0  0  0  0  0  0  0
   -0.9233    0.1580    0.0000 C   0  0  0  0  0  0  0  0  0  0  0  0
   -2.1641   -0.6849    0.0000 C   0  0  0  0  0  0  0  0  0  0  0  0
   -3.4049   -1.5278    0.0000 N   0  0  0  0  0  0  0  0  0  0  0  0
   -1.0329    1.6540    0.0000 N   0  0  0  0  0  0  0  0  0  0  0  0
   -2.3833    2.3070    0.0000 O   0  0  0  0  0  0  0  0  0  0  0  0
  1  2  1  0
  2  3  1  0
  3  4  1  0
  4  5  2  0
  4  6  1  0
  6  7  1  0
  7  8  3  0
  6  9  2  3
  9 10  1  0
M  END
