
     RDKit          2D

  9  8  0  0  0  0  0  0  0  0999 V2000
   -3.7500   -0.1443    0.0000 C   0  0  0  0  0  0  0  0  0  0  0  0
   -2.2500   -0.1443    0.0000 C   0  0  0  0  0  0  0  0  0  0  0  0
   -1.5000   -1.4434    0.0000 C   0  0  0  0  0  0  0  0  0  0  0  0
   -1.5000    1.1547    0.0000 N   0  0  0  0  0  0  0  0  0  0  0  0
   -0.0000    1.1547    0.0000 C   0  0  0  0  0  0  0  0  0  0  0  0
    1.5000    1.1547    0.0000 N   0  0  0  0  0  0  0  0  0  0  0  0
    2.2500   -0.1443    0.0000 C   0  0  0  0  0  0  0  0  0  0  0  0
    3.7500   -0.1443    0.0000 C   0  0  0  0  0  0  0  0  0  0  0  0
    1.5000   -1.4434    0.0000 C   0  0  0  0  0  0  0  0  0  0  0  0
  1  2  1  0
  2  3  1  0
  2  4  1  0
  4  5  2  0
  5  6  2  0
  6  7  1  0
  7  8  1  0
  7  9  1  0
M  END
