
     RDKit          2D

  7  6  0  0  0  0  0  0  0  0999 V2000
   -1.6071   -1.2990    0.0000 O   0  0  0  0  0  0  0  0  0  0  0  0
   -0.8571    0.0000    0.0000 C   0  0  0  0  0  0  0  0  0  0  0  0
   -1.6071    1.2990    0.0000 O   0  0  0  0  0  0  0  0  0  0  0  0
    0.6429   -0.0000    0.0000 C   0  0  0  0  0  0  0  0  0  0  0  0
    2.1429    0.0000    0.0000 F   0  0  0  0  0  0  0  0  0  0  0  0
    0.6429   -1.5000    0.0000 F   0  0  0  0  0  0  0  0  0  0  0  0
    0.6429    1.5000    0.0000 F   0  0  0  0  0  0  0  0  0  0  0  0
  1  2  2  0
  2  3  1  0
  2  4  1  0
  4  5  1  0
  4  6  1  0
  4  7  1  0
M  END
