
     RDKit          2D

 16 16  0  0  0  0  0  0  0  0999 V2000
    2.9021   -3.5461    0.0000 C   0  0  0  0  0  0  0  0  0  0  0  0
    3.2543   -2.0881    0.0000 O   0  0  0  0  0  0  0  0  0  0  0  0
    2.1676   -1.0540    0.0000 C   0  0  0  0  0  0  0  0  0  0  0  0
    0.7288   -1.4781    0.0000 C   0  0  0  0  0  0  0  0  0  0  0  0
   -0.3578   -0.4440    0.0000 C   0  0  0  0  0  0  0  0  0  0  0  0
   -1.7966   -0.8681    0.0000 C   0  0  0  0  0  0  0  0  0  0  0  0
   -2.8833    0.1660    0.0000 C   0  0  0  0  0  0  0  0  0  0  0  0
   -4.3221   -0.2581    0.0000 C   0  0  0  0  0  0  0  0  0  0  0  0
   -4.6743   -1.7161    0.0000 O   0  0  0  0  0  0  0  0  0  0  0  0
   -5.4087    0.7760    0.0000 O   0  0  0  0  0  0  0  0  0  0  0  0
   -0.0056    1.0140    0.0000 C   0  0  0  0  0  0  0  0  0  0  0  0
    1.4332    1.4381    0.0000 C   0  0  0  0  0  0  0  0  0  0  0  0
    1.7854    2.8962    0.0000 O   0  0  0  0  0  0  0  0  0  0  0  0
    0.6987    3.9302    0.0000 C   0  0  0  0  0  0  0  0  0  0  0  0
    2.5198    0.4040    0.0000 C   0  0  0  0  0  0  0  0  0  0  0  0
    3.9586    0.8281    0.0000 O   0  0  0  0  0  0  0  0  0  0  0  0
  1  2  1  0
  2  3  1  0
  3  4  1  0
  4  5  2  0
  5  6  1  0
  6  7  2  0
  7  8  1  0
  8  9  2  0
  8 10  1  0
  5 11  1  0
 11 12  2  0
 12 13  1  0
 13 14  1  0
 12 15  1  0
 15 16  1  0
 15  3  2  0
M  END
