
     RDKit          2D

 28 32  0  0  0  0  0  0  0  0999 V2000
    1.1116   -4.2685    0.0000 O   0  0  0  0  0  0  0  0  0  0  0  0
    0.7352   -2.8164    0.0000 C   0  0  0  0  0  0  0  0  0  0  0  0
    1.6887   -1.6585    0.0000 O   0  0  0  0  0  0  0  0  0  0  0  0
    0.8821   -0.3938    0.0000 C   0  0  0  0  0  0  0  0  0  0  0  0
    2.3655   -0.1713    0.0000 C   0  0  0  0  0  0  0  0  0  0  0  0
    3.2999   -1.3447    0.0000 C   0  0  0  0  0  0  0  0  0  0  0  0
    4.7833   -1.1222    0.0000 C   0  0  0  0  0  0  0  0  0  0  0  0
    5.3323    0.2737    0.0000 C   0  0  0  0  0  0  0  0  0  0  0  0
    6.8157    0.4962    0.0000 O   0  0  0  0  0  0  0  0  0  0  0  0
    4.3979    1.4471    0.0000 C   0  0  0  0  0  0  0  0  0  0  0  0
    2.9145    1.2246    0.0000 C   0  0  0  0  0  0  0  0  0  0  0  0
    1.9801    2.3980    0.0000 O   0  0  0  0  0  0  0  0  0  0  0  0
    0.4967    2.1755    0.0000 C   0  0  0  0  0  0  0  0  0  0  0  0
   -0.4377    3.3489    0.0000 C   0  0  0  0  0  0  0  0  0  0  0  0
   -1.9211    3.1264    0.0000 C   0  0  0  0  0  0  0  0  0  0  0  0
   -2.8555    4.2998    0.0000 O   0  0  0  0  0  0  0  0  0  0  0  0
   -2.4701    1.7305    0.0000 C   0  0  0  0  0  0  0  0  0  0  0  0
   -1.5357    0.5571    0.0000 C   0  0  0  0  0  0  0  0  0  0  0  0
   -0.0523    0.7796    0.0000 C   0  0  0  0  0  0  0  0  0  0  0  0
   -0.5699   -0.7702    0.0000 C   0  0  0  0  0  0  0  0  0  0  0  0
   -1.8635   -0.6417    0.0000 C   0  0  0  0  0  0  0  0  0  0  0  0
   -2.5793   -0.9990    0.0000 C   0  0  0  0  0  0  0  0  0  0  0  0
   -4.4145    0.2142    0.0000 N   0  0  0  0  0  0  0  0  0  0  0  0
   -5.7565   -0.4558    0.0000 C   0  0  0  0  0  0  0  0  0  0  0  0
   -7.0986   -1.1258    0.0000 S   0  0  0  0  0  0  0  0  0  0  0  0
   -2.6277   -1.7976    0.0000 C   0  0  0  0  0  0  0  0  0  0  0  0
   -1.9604   -2.2387    0.0000 C   0  0  0  0  0  0  0  0  0  0  0  0
   -0.6607   -2.2674    0.0000 C   0  0  0  0  0  0  0  0  0  0  0  0
  1  2  2  0
  2  3  1  0
  3  4  1  0
  4  5  1  0
  5  6  1  0
  6  7  2  0
  7  8  1  0
  8  9  1  0
  8 10  2  0
 10 11  1  0
 11 12  1  0
 12 13  1  0
 13 14  1  0
 14 15  2  0
 15 16  1  0
 15 17  1  0
 17 18  2  0
 18 19  1  0
  4 20  1  0
 20 21  1  0
 21 22  2  0
 22 23  1  0
 23 24  2  0
 24 25  2  0
 22 26  1  0
 26 27  2  0
 27 28  1  0
 28  2  1  0
 19  4  1  0
 28 20  2  0
 11  5  2  0
 19 13  2  0
M  END
