
     RDKit          2D

 33 37  0  0  0  0  0  0  0  0999 V2000
   -8.1683    1.2160    0.0000 C   0  0  0  0  0  0  0  0  0  0  0  0
   -6.8164    0.5659    0.0000 C   0  0  0  0  0  0  0  0  0  0  0  0
   -5.5776    1.4116    0.0000 N   0  0  0  0  0  0  0  0  0  0  0  0
   -5.6905    2.9074    0.0000 C   0  0  0  0  0  0  0  0  0  0  0  0
   -7.0424    3.5574    0.0000 C   0  0  0  0  0  0  0  0  0  0  0  0
   -4.2257    0.7616    0.0000 C   0  0  0  0  0  0  0  0  0  0  0  0
   -4.1127   -0.7341    0.0000 C   0  0  0  0  0  0  0  0  0  0  0  0
   -2.7609   -1.3841    0.0000 C   0  0  0  0  0  0  0  0  0  0  0  0
   -1.5220   -0.5384    0.0000 C   0  0  0  0  0  0  0  0  0  0  0  0
   -1.6350    0.9573    0.0000 C   0  0  0  0  0  0  0  0  0  0  0  0
   -2.9869    1.6073    0.0000 C   0  0  0  0  0  0  0  0  0  0  0  0
   -0.3962    1.8030    0.0000 O   0  0  0  0  0  0  0  0  0  0  0  0
    0.9557    1.1530    0.0000 C   0  0  0  0  0  0  0  0  0  0  0  0
    2.1945    1.9987    0.0000 C   0  0  0  0  0  0  0  0  0  0  0  0
    3.5464    1.3487    0.0000 C   0  0  0  0  0  0  0  0  0  0  0  0
    4.7852    2.1944    0.0000 N   0  0  0  0  0  0  0  0  0  0  0  0
    4.6722    3.6901    0.0000 C   0  0  0  0  0  0  0  0  0  0  0  0
    5.9111    4.5359    0.0000 C   0  0  0  0  0  0  0  0  0  0  0  0
    6.1371    1.5444    0.0000 C   0  0  0  0  0  0  0  0  0  0  0  0
    7.3759    2.3901    0.0000 C   0  0  0  0  0  0  0  0  0  0  0  0
    3.6593   -0.1471    0.0000 C   0  0  0  0  0  0  0  0  0  0  0  0
    2.4205   -0.9928    0.0000 C   0  0  0  0  0  0  0  0  0  0  0  0
    1.0686   -0.3427    0.0000 C   0  0  0  0  0  0  0  0  0  0  0  0
   -0.1702   -1.1885    0.0000 C   0  0  0  0  0  0  0  0  0  0  0  0
   -1.3139   -2.1590    0.0000 O   0  0  0  0  0  0  0  0  0  0  0  0
   -0.7442   -3.5467    0.0000 C   0  0  0  0  0  0  0  0  0  0  0  0
   -1.5320   -4.8231    0.0000 O   0  0  0  0  0  0  0  0  0  0  0  0
    0.7515   -3.4337    0.0000 C   0  0  0  0  0  0  0  0  0  0  0  0
    2.0019   -3.7895    0.0000 C   0  0  0  0  0  0  0  0  0  0  0  0
    2.7696   -3.5647    0.0000 C   0  0  0  0  0  0  0  0  0  0  0  0
    2.9588   -2.7874    0.0000 C   0  0  0  0  0  0  0  0  0  0  0  0
    2.3803   -2.2349    0.0000 C   0  0  0  0  0  0  0  0  0  0  0  0
    1.1063   -1.9762    0.0000 C   0  0  0  0  0  0  0  0  0  0  0  0
  1  2  1  0
  2  3  1  0
  3  4  1  0
  4  5  1  0
  3  6  1  0
  6  7  1  0
  7  8  2  0
  8  9  1  0
  9 10  2  0
 10 11  1  0
 10 12  1  0
 12 13  1  0
 13 14  1  0
 14 15  2  0
 15 16  1  0
 16 17  1  0
 17 18  1  0
 16 19  1  0
 19 20  1  0
 15 21  1  0
 21 22  2  0
 22 23  1  0
 23 24  1  0
 24 25  1  0
 25 26  1  0
 26 27  2  0
 26 28  1  0
 28 29  2  0
 29 30  1  0
 30 31  2  0
 31 32  1  0
 32 33  2  0
 11  6  2  0
 23 13  2  0
 33 24  1  0
 24  9  1  0
 33 28  1  0
M  END
