
     RDKit          2D

 41 45  0  0  0  0  0  0  0  0999 V2000
   -7.6477   -5.0696    0.0000 C   0  0  0  0  0  0  0  0  0  0  0  0
   -6.1930   -5.4351    0.0000 O   0  0  0  0  0  0  0  0  0  0  0  0
   -5.1490   -4.3580    0.0000 C   0  0  0  0  0  0  0  0  0  0  0  0
   -5.5599   -2.9153    0.0000 C   0  0  0  0  0  0  0  0  0  0  0  0
   -4.5159   -1.8382    0.0000 C   0  0  0  0  0  0  0  0  0  0  0  0
   -4.9268   -0.3956    0.0000 O   0  0  0  0  0  0  0  0  0  0  0  0
   -6.3816   -0.0301    0.0000 C   0  0  0  0  0  0  0  0  0  0  0  0
   -3.0611   -2.2037    0.0000 C   0  0  0  0  0  0  0  0  0  0  0  0
   -2.6503   -3.6464    0.0000 C   0  0  0  0  0  0  0  0  0  0  0  0
   -1.1955   -4.0119    0.0000 O   0  0  0  0  0  0  0  0  0  0  0  0
   -3.6942   -4.7235    0.0000 C   0  0  0  0  0  0  0  0  0  0  0  0
   -2.0172   -1.1266    0.0000 C   0  0  0  0  0  0  0  0  0  0  0  0
   -2.4281    0.3160    0.0000 C   0  0  0  0  0  0  0  0  0  0  0  0
   -1.3841    1.3932    0.0000 C   0  0  0  0  0  0  0  0  0  0  0  0
   -1.7950    2.8358    0.0000 C   0  0  0  0  0  0  0  0  0  0  0  0
   -3.2497    3.2013    0.0000 C   0  0  0  0  0  0  0  0  0  0  0  0
   -3.6606    4.6439    0.0000 O   0  0  0  0  0  0  0  0  0  0  0  0
   -2.6167    5.7211    0.0000 C   0  0  0  0  0  0  0  0  0  0  0  0
   -3.0275    7.1637    0.0000 C   0  0  0  0  0  0  0  0  0  0  0  0
   -4.4823    7.5292    0.0000 O   0  0  0  0  0  0  0  0  0  0  0  0
   -1.9836    8.2408    0.0000 O   0  0  0  0  0  0  0  0  0  0  0  0
   -4.2937    2.1242    0.0000 C   0  0  0  0  0  0  0  0  0  0  0  0
   -3.8828    0.6815    0.0000 C   0  0  0  0  0  0  0  0  0  0  0  0
   -0.5624   -1.4921    0.0000 N   0  0  0  0  0  0  0  0  0  0  0  0
    0.4815   -0.4150    0.0000 C   0  0  0  0  0  0  0  0  0  0  0  0
    0.0707    1.0276    0.0000 O   0  0  0  0  0  0  0  0  0  0  0  0
    1.9363   -0.7805    0.0000 O   0  0  0  0  0  0  0  0  0  0  0  0
    2.9802    0.2966    0.0000 C   0  0  0  0  0  0  0  0  0  0  0  0
    4.4350   -0.0689    0.0000 C   0  0  0  0  0  0  0  0  0  0  0  0
    5.5858    0.8932    0.0000 C   0  0  0  0  0  0  0  0  0  0  0  0
    5.6409    2.3922    0.0000 C   0  0  0  0  0  0  0  0  0  0  0  0
    6.9666    3.0940    0.0000 C   0  0  0  0  0  0  0  0  0  0  0  0
    8.2372    2.2968    0.0000 C   0  0  0  0  0  0  0  0  0  0  0  0
    8.1822    0.7978    0.0000 C   0  0  0  0  0  0  0  0  0  0  0  0
    6.8565    0.0960    0.0000 C   0  0  0  0  0  0  0  0  0  0  0  0
    6.4910   -1.3588    0.0000 C   0  0  0  0  0  0  0  0  0  0  0  0
    7.3275   -2.6038    0.0000 C   0  0  0  0  0  0  0  0  0  0  0  0
    6.6675   -3.9508    0.0000 C   0  0  0  0  0  0  0  0  0  0  0  0
    5.1710   -4.0528    0.0000 C   0  0  0  0  0  0  0  0  0  0  0  0
    4.3344   -2.8077    0.0000 C   0  0  0  0  0  0  0  0  0  0  0  0
    4.9944   -1.4607    0.0000 C   0  0  0  0  0  0  0  0  0  0  0  0
  1  2  1  0
  2  3  1  0
  3  4  1  0
  4  5  2  0
  5  6  1  0
  6  7  1  0
  5  8  1  0
  8  9  2  0
  9 10  1  0
  9 11  1  0
  8 12  1  0
 12 13  1  0
 13 14  1  0
 14 15  2  0
 15 16  1  0
 16 17  1  0
 17 18  1  0
 18 19  1  0
 19 20  2  0
 19 21  1  0
 16 22  2  0
 22 23  1  0
 12 24  1  0
 24 25  1  0
 25 26  2  0
 25 27  1  0
 27 28  1  0
 28 29  1  0
 29 30  1  0
 30 31  2  0
 31 32  1  0
 32 33  2  0
 33 34  1  0
 34 35  2  0
 35 36  1  0
 36 37  2  0
 37 38  1  0
 38 39  2  0
 39 40  1  0
 40 41  2  0
 11  3  2  0
 23 13  2  0
 41 29  1  0
 35 30  1  0
 41 36  1  0
M  END
