
     RDKit          2D

 14 16  0  0  0  0  0  0  0  0999 V2000
    0.0000   -3.1041    0.0000 C   0  0  0  0  0  0  0  0  0  0  0  0
    0.0000   -1.6041    0.0000 C   0  0  0  0  0  0  0  0  0  0  0  0
    1.2135   -0.7224    0.0000 C   0  0  0  0  0  0  0  0  0  0  0  0
    2.6807   -1.0342    0.0000 C   0  0  0  0  0  0  0  0  0  0  0  0
    3.6844    0.0805    0.0000 C   0  0  0  0  0  0  0  0  0  0  0  0
    3.2209    1.5071    0.0000 C   0  0  0  0  0  0  0  0  0  0  0  0
    1.7537    1.8189    0.0000 C   0  0  0  0  0  0  0  0  0  0  0  0
    0.7500    0.7042    0.0000 C   0  0  0  0  0  0  0  0  0  0  0  0
   -0.7500    0.7042    0.0000 C   0  0  0  0  0  0  0  0  0  0  0  0
   -1.7537    1.8189    0.0000 C   0  0  0  0  0  0  0  0  0  0  0  0
   -3.2209    1.5071    0.0000 C   0  0  0  0  0  0  0  0  0  0  0  0
   -3.6844    0.0805    0.0000 C   0  0  0  0  0  0  0  0  0  0  0  0
   -2.6807   -1.0342    0.0000 C   0  0  0  0  0  0  0  0  0  0  0  0
   -1.2135   -0.7224    0.0000 C   0  0  0  0  0  0  0  0  0  0  0  0
  1  2  2  0
  2  3  1  0
  3  4  2  0
  4  5  1  0
  5  6  2  0
  6  7  1  0
  7  8  2  0
  8  9  1  0
  9 10  2  0
 10 11  1  0
 11 12  2  0
 12 13  1  0
 13 14  2  0
 14  2  1  0
  8  3  1  0
 14  9  1  0
M  END
