
     RDKit          2D

 11 12  0  0  0  0  0  0  0  0999 V2000
    3.4185   -1.0669    0.0000 N   0  0  0  0  0  0  0  0  0  0  0  0
    2.0102   -0.5504    0.0000 C   0  0  0  0  0  0  0  0  0  0  0  0
    0.8588   -1.5117    0.0000 N   0  0  0  0  0  0  0  0  0  0  0  0
   -0.5495   -0.9951    0.0000 C   0  0  0  0  0  0  0  0  0  0  0  0
   -1.8757   -1.6960    0.0000 N   0  0  0  0  0  0  0  0  0  0  0  0
   -2.9521   -0.6513    0.0000 C   0  0  0  0  0  0  0  0  0  0  0  0
   -2.2911    0.6952    0.0000 N   0  0  0  0  0  0  0  0  0  0  0  0
   -0.8063    0.4827    0.0000 C   0  0  0  0  0  0  0  0  0  0  0  0
    0.3452    1.4440    0.0000 C   0  0  0  0  0  0  0  0  0  0  0  0
    0.0884    2.9219    0.0000 O   0  0  0  0  0  0  0  0  0  0  0  0
    1.7535    0.9275    0.0000 N   0  0  0  0  0  0  0  0  0  0  0  0
  1  2  1  0
  2  3  2  0
  3  4  1  0
  4  5  1  0
  5  6  1  0
  6  7  2  0
  7  8  1  0
  8  9  1  0
  9 10  2  0
  9 11  1  0
 11  2  1  0
  8  4  2  0
M  END
