
     RDKit          2D

 28 30  0  0  0  0  0  0  0  0999 V2000
  -11.3391    1.8183    0.0000 O   0  0  0  0  0  0  0  0  0  0  0  0
  -11.4092    0.3199    0.0000 C   0  0  0  0  0  0  0  0  0  0  0  0
  -12.7418   -0.3686    0.0000 O   0  0  0  0  0  0  0  0  0  0  0  0
  -10.1466   -0.4900    0.0000 C   0  0  0  0  0  0  0  0  0  0  0  0
   -8.8139    0.1985    0.0000 O   0  0  0  0  0  0  0  0  0  0  0  0
   -7.5513   -0.6114    0.0000 C   0  0  0  0  0  0  0  0  0  0  0  0
   -6.2187    0.0771    0.0000 C   0  0  0  0  0  0  0  0  0  0  0  0
   -4.9561   -0.7328    0.0000 O   0  0  0  0  0  0  0  0  0  0  0  0
   -3.6234   -0.0443    0.0000 C   0  0  0  0  0  0  0  0  0  0  0  0
   -2.3609   -0.8541    0.0000 C   0  0  0  0  0  0  0  0  0  0  0  0
   -1.0282   -0.1657    0.0000 N   0  0  0  0  0  0  0  0  0  0  0  0
    0.2344   -0.9755    0.0000 C   0  0  0  0  0  0  0  0  0  0  0  0
    0.1643   -2.4739    0.0000 O   0  0  0  0  0  0  0  0  0  0  0  0
    1.5670   -0.2870    0.0000 O   0  0  0  0  0  0  0  0  0  0  0  0
    2.8296   -1.0969    0.0000 C   0  0  0  0  0  0  0  0  0  0  0  0
    4.1623   -0.4084    0.0000 C   0  0  0  0  0  0  0  0  0  0  0  0
    5.5026   -1.0819    0.0000 C   0  0  0  0  0  0  0  0  0  0  0  0
    5.8990   -2.5286    0.0000 C   0  0  0  0  0  0  0  0  0  0  0  0
    7.3500   -2.9087    0.0000 C   0  0  0  0  0  0  0  0  0  0  0  0
    8.4047   -1.8421    0.0000 C   0  0  0  0  0  0  0  0  0  0  0  0
    8.0083   -0.3954    0.0000 C   0  0  0  0  0  0  0  0  0  0  0  0
    6.5573   -0.0153    0.0000 C   0  0  0  0  0  0  0  0  0  0  0  0
    5.8688    1.3174    0.0000 C   0  0  0  0  0  0  0  0  0  0  0  0
    6.3985    2.7207    0.0000 C   0  0  0  0  0  0  0  0  0  0  0  0
    5.4479    3.8811    0.0000 C   0  0  0  0  0  0  0  0  0  0  0  0
    3.9678    3.6382    0.0000 C   0  0  0  0  0  0  0  0  0  0  0  0
    3.4381    2.2348    0.0000 C   0  0  0  0  0  0  0  0  0  0  0  0
    4.3886    1.0744    0.0000 C   0  0  0  0  0  0  0  0  0  0  0  0
  1  2  2  0
  2  3  1  0
  2  4  1  0
  4  5  1  0
  5  6  1  0
  6  7  1  0
  7  8  1  0
  8  9  1  0
  9 10  1  0
 10 11  1  0
 11 12  1  0
 12 13  2  0
 12 14  1  0
 14 15  1  0
 15 16  1  0
 16 17  1  0
 17 18  2  0
 18 19  1  0
 19 20  2  0
 20 21  1  0
 21 22  2  0
 22 23  1  0
 23 24  2  0
 24 25  1  0
 25 26  2  0
 26 27  1  0
 27 28  2  0
 28 16  1  0
 22 17  1  0
 28 23  1  0
M  END
