
     RDKit          2D

 61 66  0  0  0  0  0  0  0  0999 V2000
   -0.7459   -7.3350    0.0000 C   0  0  0  0  0  0  0  0  0  0  0  0
    0.7374   -7.5581    0.0000 C   0  0  0  0  0  0  0  0  0  0  0  0
    2.2207   -7.7812    0.0000 C   0  0  0  0  0  0  0  0  0  0  0  0
    0.5143   -9.0415    0.0000 C   0  0  0  0  0  0  0  0  0  0  0  0
    0.9605   -6.0748    0.0000 O   0  0  0  0  0  0  0  0  0  0  0  0
    2.3567   -5.5264    0.0000 C   0  0  0  0  0  0  0  0  0  0  0  0
    3.5297   -6.4612    0.0000 O   0  0  0  0  0  0  0  0  0  0  0  0
    2.5797   -4.0431    0.0000 C   0  0  0  0  0  0  0  0  0  0  0  0
    3.9759   -3.4946    0.0000 C   0  0  0  0  0  0  0  0  0  0  0  0
    4.1990   -2.0113    0.0000 C   0  0  0  0  0  0  0  0  0  0  0  0
    3.0259   -1.0764    0.0000 C   0  0  0  0  0  0  0  0  0  0  0  0
    1.6298   -1.6249    0.0000 N   0  0  0  0  0  0  0  0  0  0  0  0
    1.4067   -3.1082    0.0000 C   0  0  0  0  0  0  0  0  0  0  0  0
    0.0106   -3.6566    0.0000 C   0  0  0  0  0  0  0  0  0  0  0  0
   -1.1625   -2.7218    0.0000 O   0  0  0  0  0  0  0  0  0  0  0  0
   -0.2125   -5.1400    0.0000 O   0  0  0  0  0  0  0  0  0  0  0  0
    0.4568   -0.6900    0.0000 C   0  0  0  0  0  0  0  0  0  0  0  0
    0.6799    0.7933    0.0000 O   0  0  0  0  0  0  0  0  0  0  0  0
   -0.9394   -1.2385    0.0000 C   0  0  0  0  0  0  0  0  0  0  0  0
   -2.1124   -0.3036    0.0000 N   0  0  0  0  0  0  0  0  0  0  0  0
   -1.8893    1.1797    0.0000 C   0  0  0  0  0  0  0  0  0  0  0  0
   -3.0624    2.1146    0.0000 C   0  0  0  0  0  0  0  0  0  0  0  0
   -4.4585    1.5661    0.0000 C   0  0  0  0  0  0  0  0  0  0  0  0
   -5.6316    2.5010    0.0000 N   0  0  0  0  0  0  0  0  0  0  0  0
   -7.0277    1.9525    0.0000 C   0  0  0  0  0  0  0  0  0  0  0  0
   -7.2508    0.4692    0.0000 O   0  0  0  0  0  0  0  0  0  0  0  0
   -8.2007    2.8874    0.0000 O   0  0  0  0  0  0  0  0  0  0  0  0
   -9.5969    2.3390    0.0000 C   0  0  0  0  0  0  0  0  0  0  0  0
  -10.7699    3.2738    0.0000 C   0  0  0  0  0  0  0  0  0  0  0  0
  -10.5468    4.7571    0.0000 C   0  0  0  0  0  0  0  0  0  0  0  0
  -11.7199    5.6920    0.0000 C   0  0  0  0  0  0  0  0  0  0  0  0
  -13.1160    5.1435    0.0000 C   0  0  0  0  0  0  0  0  0  0  0  0
  -13.3391    3.6602    0.0000 C   0  0  0  0  0  0  0  0  0  0  0  0
  -12.1660    2.7254    0.0000 C   0  0  0  0  0  0  0  0  0  0  0  0
   -9.8200    0.8556    0.0000 C   0  0  0  0  0  0  0  0  0  0  0  0
  -11.2161    0.3072    0.0000 C   0  0  0  0  0  0  0  0  0  0  0  0
  -11.4392   -1.1761    0.0000 C   0  0  0  0  0  0  0  0  0  0  0  0
  -10.2662   -2.1110    0.0000 C   0  0  0  0  0  0  0  0  0  0  0  0
   -8.8700   -1.5625    0.0000 C   0  0  0  0  0  0  0  0  0  0  0  0
   -8.6469   -0.0792    0.0000 C   0  0  0  0  0  0  0  0  0  0  0  0
   -4.6816    0.0828    0.0000 N   0  0  0  0  0  0  0  0  0  0  0  0
   -3.5086   -0.8520    0.0000 C   0  0  0  0  0  0  0  0  0  0  0  0
   -3.7317   -2.3354    0.0000 O   0  0  0  0  0  0  0  0  0  0  0  0
    5.5951   -1.4628    0.0000 N   0  0  0  0  0  0  0  0  0  0  0  0
    5.8182    0.0205    0.0000 C   0  0  0  0  0  0  0  0  0  0  0  0
    4.6452    0.9554    0.0000 O   0  0  0  0  0  0  0  0  0  0  0  0
    7.2144    0.5689    0.0000 O   0  0  0  0  0  0  0  0  0  0  0  0
    7.4374    2.0523    0.0000 C   0  0  0  0  0  0  0  0  0  0  0  0
    8.8336    2.6007    0.0000 C   0  0  0  0  0  0  0  0  0  0  0  0
    9.2105    4.0526    0.0000 C   0  0  0  0  0  0  0  0  0  0  0  0
    8.3838    5.3042    0.0000 C   0  0  0  0  0  0  0  0  0  0  0  0
    9.0543    6.6460    0.0000 C   0  0  0  0  0  0  0  0  0  0  0  0
   10.5516    6.7361    0.0000 C   0  0  0  0  0  0  0  0  0  0  0  0
   11.3783    5.4845    0.0000 C   0  0  0  0  0  0  0  0  0  0  0  0
   10.7078    4.1428    0.0000 C   0  0  0  0  0  0  0  0  0  0  0  0
   11.2562    2.7466    0.0000 C   0  0  0  0  0  0  0  0  0  0  0  0
   12.6608    2.2200    0.0000 C   0  0  0  0  0  0  0  0  0  0  0  0
   12.9070    0.7403    0.0000 C   0  0  0  0  0  0  0  0  0  0  0  0
   11.7486   -0.2127    0.0000 C   0  0  0  0  0  0  0  0  0  0  0  0
   10.3441    0.3139    0.0000 C   0  0  0  0  0  0  0  0  0  0  0  0
   10.0979    1.7936    0.0000 C   0  0  0  0  0  0  0  0  0  0  0  0
  1  2  1  0
  2  3  1  0
  2  4  1  0
  2  5  1  0
  5  6  1  0
  6  7  2  0
  6  8  1  0
  8  9  1  0
 10  9  1  1
 10 11  1  0
 11 12  1  0
 12 13  1  0
 13 14  1  0
 14 15  2  0
 14 16  1  0
 12 17  1  0
 17 18  2  0
 17 19  1  0
 19 20  1  0
 20 21  1  0
 21 22  2  0
 22 23  1  0
 23 24  1  0
 24 25  1  0
 25 26  2  0
 25 27  1  0
 27 28  1  0
 28 29  1  0
 29 30  2  0
 30 31  1  0
 31 32  2  0
 32 33  1  0
 33 34  2  0
 28 35  1  0
 35 36  2  0
 36 37  1  0
 37 38  2  0
 38 39  1  0
 39 40  2  0
 23 41  2  0
 41 42  1  0
 42 43  2  0
 10 44  1  0
 44 45  1  0
 45 46  2  0
 45 47  1  0
 47 48  1  0
 48 49  1  0
 49 50  1  0
 50 51  2  0
 51 52  1  0
 52 53  2  0
 53 54  1  0
 54 55  2  0
 55 56  1  0
 56 57  2  0
 57 58  1  0
 58 59  2  0
 59 60  1  0
 60 61  2  0
 42 20  1  0
 61 49  1  0
 34 29  1  0
 40 35  1  0
 55 50  1  0
 61 56  1  0
M  END
