
     RDKit          2D

 46 49  0  0  0  0  0  0  0  0999 V2000
   -6.5159    2.3626    0.0000 C   0  0  0  0  0  0  0  0  0  0  0  0
   -6.6666    0.8702    0.0000 C   0  0  0  0  0  0  0  0  0  0  0  0
   -5.4495   -0.0065    0.0000 C   0  0  0  0  0  0  0  0  0  0  0  0
   -5.6002   -1.4989    0.0000 N   0  0  0  0  0  0  0  0  0  0  0  0
   -4.3830   -2.3756    0.0000 C   0  0  0  0  0  0  0  0  0  0  0  0
   -3.0152   -1.7599    0.0000 C   0  0  0  0  0  0  0  0  0  0  0  0
   -2.8645   -0.2675    0.0000 O   0  0  0  0  0  0  0  0  0  0  0  0
   -1.7981   -2.6366    0.0000 N   0  0  0  0  0  0  0  0  0  0  0  0
   -1.9488   -4.1290    0.0000 C   0  0  0  0  0  0  0  0  0  0  0  0
   -3.3166   -4.7447    0.0000 C   0  0  0  0  0  0  0  0  0  0  0  0
   -4.5337   -3.8680    0.0000 O   0  0  0  0  0  0  0  0  0  0  0  0
   -3.4673   -6.2371    0.0000 O   0  0  0  0  0  0  0  0  0  0  0  0
   -0.4303   -2.0209    0.0000 C   0  0  0  0  0  0  0  0  0  0  0  0
   -0.2796   -0.5285    0.0000 C   0  0  0  0  0  0  0  0  0  0  0  0
   -1.4967    0.3482    0.0000 C   0  0  0  0  0  0  0  0  0  0  0  0
   -1.3461    1.8406    0.0000 C   0  0  0  0  0  0  0  0  0  0  0  0
   -2.5632    2.7173    0.0000 C   0  0  0  0  0  0  0  0  0  0  0  0
   -3.9310    2.1016    0.0000 O   0  0  0  0  0  0  0  0  0  0  0  0
   -2.4125    4.2098    0.0000 O   0  0  0  0  0  0  0  0  0  0  0  0
   -3.6296    5.0865    0.0000 C   0  0  0  0  0  0  0  0  0  0  0  0
   -2.7529    6.3036    0.0000 C   0  0  0  0  0  0  0  0  0  0  0  0
   -4.5063    3.8693    0.0000 C   0  0  0  0  0  0  0  0  0  0  0  0
   -4.8467    5.9632    0.0000 C   0  0  0  0  0  0  0  0  0  0  0  0
    1.0882    0.0872    0.0000 N   0  0  0  0  0  0  0  0  0  0  0  0
    2.3053   -0.7895    0.0000 C   0  0  0  0  0  0  0  0  0  0  0  0
    2.1546   -2.2819    0.0000 O   0  0  0  0  0  0  0  0  0  0  0  0
    3.6731   -0.1737    0.0000 O   0  0  0  0  0  0  0  0  0  0  0  0
    4.8903   -1.0504    0.0000 C   0  0  0  0  0  0  0  0  0  0  0  0
    6.2581   -0.4347    0.0000 C   0  0  0  0  0  0  0  0  0  0  0  0
    7.5602   -1.1794    0.0000 C   0  0  0  0  0  0  0  0  0  0  0  0
    7.8780   -2.6453    0.0000 C   0  0  0  0  0  0  0  0  0  0  0  0
    9.3065   -3.1030    0.0000 C   0  0  0  0  0  0  0  0  0  0  0  0
   10.4171   -2.0948    0.0000 C   0  0  0  0  0  0  0  0  0  0  0  0
   10.0992   -0.6288    0.0000 C   0  0  0  0  0  0  0  0  0  0  0  0
    8.6708   -0.1711    0.0000 C   0  0  0  0  0  0  0  0  0  0  0  0
    8.0551    1.1967    0.0000 C   0  0  0  0  0  0  0  0  0  0  0  0
    8.6595    2.5695    0.0000 C   0  0  0  0  0  0  0  0  0  0  0  0
    7.7729    3.7794    0.0000 C   0  0  0  0  0  0  0  0  0  0  0  0
    6.2818    3.6165    0.0000 C   0  0  0  0  0  0  0  0  0  0  0  0
    5.6773    2.2437    0.0000 C   0  0  0  0  0  0  0  0  0  0  0  0
    6.5639    1.0338    0.0000 C   0  0  0  0  0  0  0  0  0  0  0  0
   -6.9680   -2.1146    0.0000 C   0  0  0  0  0  0  0  0  0  0  0  0
   -7.1186   -3.6070    0.0000 O   0  0  0  0  0  0  0  0  0  0  0  0
   -8.1851   -1.2379    0.0000 N   0  0  0  0  0  0  0  0  0  0  0  0
   -8.0344    0.2545    0.0000 C   0  0  0  0  0  0  0  0  0  0  0  0
   -9.2515    1.1312    0.0000 O   0  0  0  0  0  0  0  0  0  0  0  0
  1  2  1  0
  2  3  2  0
  3  4  1  0
  4  5  1  0
  5  6  1  0
  6  7  2  0
  6  8  1  0
  8  9  1  0
  9 10  1  0
 10 11  2  0
 10 12  1  0
  8 13  1  0
 14 13  1  6
 14 15  1  0
 15 16  1  0
 16 17  1  0
 17 18  2  0
 17 19  1  0
 19 20  1  0
 20 21  1  0
 20 22  1  0
 20 23  1  0
 14 24  1  0
 24 25  1  0
 25 26  2  0
 25 27  1  0
 27 28  1  0
 28 29  1  0
 29 30  1  0
 30 31  2  0
 31 32  1  0
 32 33  2  0
 33 34  1  0
 34 35  2  0
 35 36  1  0
 36 37  2  0
 37 38  1  0
 38 39  2  0
 39 40  1  0
 40 41  2  0
  4 42  1  0
 42 43  2  0
 42 44  1  0
 44 45  1  0
 45 46  2  0
 45  2  1  0
 41 29  1  0
 35 30  1  0
 41 36  1  0
M  END
