
     RDKit          2D

 23 25  0  0  0  0  0  0  0  0999 V2000
   -6.7560    0.4445    0.0000 N   0  0  0  0  0  0  0  0  0  0  0  0
   -5.3293    0.9075    0.0000 C   0  0  0  0  0  0  0  0  0  0  0  0
   -5.0169    2.3746    0.0000 N   0  0  0  0  0  0  0  0  0  0  0  0
   -3.5901    2.8376    0.0000 C   0  0  0  0  0  0  0  0  0  0  0  0
   -2.4758    1.8335    0.0000 N   0  0  0  0  0  0  0  0  0  0  0  0
   -2.7882    0.3664    0.0000 C   0  0  0  0  0  0  0  0  0  0  0  0
   -4.2149   -0.0966    0.0000 C   0  0  0  0  0  0  0  0  0  0  0  0
   -4.2154   -1.5966    0.0000 N   0  0  0  0  0  0  0  0  0  0  0  0
   -2.7890   -2.0606    0.0000 C   0  0  0  0  0  0  0  0  0  0  0  0
   -1.9069   -0.8474    0.0000 N   0  0  0  0  0  0  0  0  0  0  0  0
   -0.4069   -0.8479    0.0000 C   0  0  0  0  0  0  0  0  0  0  0  0
    0.4752    0.3653    0.0000 O   0  0  0  0  0  0  0  0  0  0  0  0
    1.9016   -0.0988    0.0000 C   0  0  0  0  0  0  0  0  0  0  0  0
    3.1155    0.7825    0.0000 C   0  0  0  0  0  0  0  0  0  0  0  0
    4.4856    0.1719    0.0000 O   0  0  0  0  0  0  0  0  0  0  0  0
    5.6994    1.0531    0.0000 P   0  0  0  0  0  0  0  0  0  0  0  0
    6.5806   -0.1607    0.0000 O   0  0  0  0  0  0  0  0  0  0  0  0
    4.8182    2.2670    0.0000 O   0  0  0  0  0  0  0  0  0  0  0  0
    6.9132    1.9344    0.0000 O   0  0  0  0  0  0  0  0  0  0  0  0
    1.9011   -1.5988    0.0000 C   0  0  0  0  0  0  0  0  0  0  0  0
    3.1143   -2.4809    0.0000 O   0  0  0  0  0  0  0  0  0  0  0  0
    0.4743   -2.0618    0.0000 C   0  0  0  0  0  0  0  0  0  0  0  0
    0.0103   -3.4882    0.0000 O   0  0  0  0  0  0  0  0  0  0  0  0
  1  2  1  0
  2  3  1  0
  3  4  2  0
  4  5  1  0
  5  6  2  0
  6  7  1  0
  7  8  1  0
  8  9  2  0
  9 10  1  0
 11 10  1  6
 11 12  1  0
 12 13  1  0
 13 14  1  6
 14 15  1  0
 15 16  1  0
 16 17  2  0
 16 18  1  0
 16 19  1  0
 13 20  1  0
 20 21  1  1
 20 22  1  0
 22 23  1  1
  7  2  2  0
 22 11  1  0
 10  6  1  0
M  END
