
     RDKit          2D

 24 26  0  0  0  0  0  0  0  0999 V2000
    4.6109    3.2680    0.0000 N   0  0  0  0  0  0  0  0  0  0  0  0
    4.3791    1.7860    0.0000 C   0  0  0  0  0  0  0  0  0  0  0  0
    2.9798    1.2458    0.0000 N   0  0  0  0  0  0  0  0  0  0  0  0
    2.7480   -0.2362    0.0000 C   0  0  0  0  0  0  0  0  0  0  0  0
    3.9156   -1.1779    0.0000 C   0  0  0  0  0  0  0  0  0  0  0  0
    3.3808   -2.5794    0.0000 N   0  0  0  0  0  0  0  0  0  0  0  0
    1.8827   -2.5038    0.0000 C   0  0  0  0  0  0  0  0  0  0  0  0
    1.4916   -1.0556    0.0000 N   0  0  0  0  0  0  0  0  0  0  0  0
    0.0902   -0.5208    0.0000 C   0  0  0  0  0  0  0  0  0  0  0  0
   -1.1662   -1.3402    0.0000 O   0  0  0  0  0  0  0  0  0  0  0  0
   -2.3338   -0.3985    0.0000 C   0  0  0  0  0  0  0  0  0  0  0  0
   -3.7819   -0.7895    0.0000 C   0  0  0  0  0  0  0  0  0  0  0  0
   -4.8446    0.2691    0.0000 O   0  0  0  0  0  0  0  0  0  0  0  0
   -6.2927   -0.1219    0.0000 P   0  0  0  0  0  0  0  0  0  0  0  0
   -6.6838    1.3262    0.0000 O   0  0  0  0  0  0  0  0  0  0  0  0
   -5.9017   -1.5701    0.0000 O   0  0  0  0  0  0  0  0  0  0  0  0
   -7.7409   -0.5130    0.0000 O   0  0  0  0  0  0  0  0  0  0  0  0
   -1.7989    1.0029    0.0000 C   0  0  0  0  0  0  0  0  0  0  0  0
   -2.6183    2.2594    0.0000 O   0  0  0  0  0  0  0  0  0  0  0  0
   -0.3008    0.9273    0.0000 C   0  0  0  0  0  0  0  0  0  0  0  0
    0.6409    2.0949    0.0000 O   0  0  0  0  0  0  0  0  0  0  0  0
    5.3149   -0.6377    0.0000 C   0  0  0  0  0  0  0  0  0  0  0  0
    6.4825   -1.5794    0.0000 O   0  0  0  0  0  0  0  0  0  0  0  0
    5.5467    0.8443    0.0000 N   0  0  0  0  0  0  0  0  0  0  0  0
  1  2  1  0
  2  3  2  0
  3  4  1  0
  4  5  2  0
  5  6  1  0
  6  7  2  0
  7  8  1  0
  9  8  1  6
  9 10  1  0
 10 11  1  0
 11 12  1  6
 12 13  1  0
 13 14  1  0
 14 15  2  0
 14 16  1  0
 14 17  1  0
 11 18  1  0
 18 19  1  1
 18 20  1  0
 20 21  1  1
  5 22  1  0
 22 23  2  0
 22 24  1  0
 24  2  1  0
  8  4  1  0
 20  9  1  0
M  END
