
     RDKit          2D

 21 22  0  0  0  0  0  0  0  0999 V2000
    6.7922   -1.2241    0.0000 N   0  0  0  0  0  0  0  0  0  0  0  0
    5.3244   -0.9146    0.0000 C   0  0  0  0  0  0  0  0  0  0  0  0
    4.3225   -2.0309    0.0000 C   0  0  0  0  0  0  0  0  0  0  0  0
    2.8548   -1.7214    0.0000 C   0  0  0  0  0  0  0  0  0  0  0  0
    2.3890   -0.2956    0.0000 N   0  0  0  0  0  0  0  0  0  0  0  0
    0.9213    0.0139    0.0000 C   0  0  0  0  0  0  0  0  0  0  0  0
   -0.1918   -0.9916    0.0000 O   0  0  0  0  0  0  0  0  0  0  0  0
   -1.4921   -0.2437    0.0000 C   0  0  0  0  0  0  0  0  0  0  0  0
   -2.8614   -0.8560    0.0000 C   0  0  0  0  0  0  0  0  0  0  0  0
   -4.0764    0.0237    0.0000 O   0  0  0  0  0  0  0  0  0  0  0  0
   -5.4457   -0.5886    0.0000 P   0  0  0  0  0  0  0  0  0  0  0  0
   -6.0580    0.7808    0.0000 O   0  0  0  0  0  0  0  0  0  0  0  0
   -4.8334   -1.9579    0.0000 O   0  0  0  0  0  0  0  0  0  0  0  0
   -6.8150   -1.2009    0.0000 O   0  0  0  0  0  0  0  0  0  0  0  0
   -1.1826    1.2241    0.0000 C   0  0  0  0  0  0  0  0  0  0  0  0
   -2.1881    2.3372    0.0000 O   0  0  0  0  0  0  0  0  0  0  0  0
    0.3089    1.3833    0.0000 C   0  0  0  0  0  0  0  0  0  0  0  0
    1.0568    2.6835    0.0000 O   0  0  0  0  0  0  0  0  0  0  0  0
    3.3909    0.8208    0.0000 C   0  0  0  0  0  0  0  0  0  0  0  0
    2.9250    2.2466    0.0000 O   0  0  0  0  0  0  0  0  0  0  0  0
    4.8586    0.5113    0.0000 N   0  0  0  0  0  0  0  0  0  0  0  0
  1  2  1  0
  2  3  1  0
  3  4  2  0
  4  5  1  0
  6  5  1  6
  6  7  1  0
  7  8  1  0
  8  9  1  6
  9 10  1  0
 10 11  1  0
 11 12  2  0
 11 13  1  0
 11 14  1  0
  8 15  1  0
 15 16  1  1
 15 17  1  0
 17 18  1  1
  5 19  1  0
 19 20  2  0
 19 21  1  0
 21  2  2  0
 17  6  1  0
M  END
