
     RDKit          2D

 71 73  0  0  0  0  0  0  0  0999 V2000
   32.8916    2.7434    0.0000 N   0  0  0  0  0  0  0  0  0  0  0  0
   32.9189    1.2437    0.0000 C   0  0  0  0  0  0  0  0  0  0  0  0
   34.2314    0.5175    0.0000 N   0  0  0  0  0  0  0  0  0  0  0  0
   34.2587   -0.9823    0.0000 C   0  0  0  0  0  0  0  0  0  0  0  0
   35.5712   -1.7085    0.0000 O   0  0  0  0  0  0  0  0  0  0  0  0
   32.9735   -1.7558    0.0000 N   0  0  0  0  0  0  0  0  0  0  0  0
   33.0008   -3.2556    0.0000 C   0  0  0  0  0  0  0  0  0  0  0  0
   31.7157   -4.0291    0.0000 C   0  0  0  0  0  0  0  0  0  0  0  0
   31.7430   -5.5289    0.0000 O   0  0  0  0  0  0  0  0  0  0  0  0
   31.6611   -1.0296    0.0000 C   0  0  0  0  0  0  0  0  0  0  0  0
   31.6337    0.4702    0.0000 C   0  0  0  0  0  0  0  0  0  0  0  0
   30.3213    1.1964    0.0000 C   0  0  0  0  0  0  0  0  0  0  0  0
   29.0361    0.4228    0.0000 C   0  0  0  0  0  0  0  0  0  0  0  0
   27.7236    1.1491    0.0000 C   0  0  0  0  0  0  0  0  0  0  0  0
   26.4384    0.3755    0.0000 N   0  0  0  0  0  0  0  0  0  0  0  0
   25.1260    1.1018    0.0000 C   0  0  0  0  0  0  0  0  0  0  0  0
   25.0987    2.6015    0.0000 O   0  0  0  0  0  0  0  0  0  0  0  0
   23.8408    0.3282    0.0000 C   0  0  0  0  0  0  0  0  0  0  0  0
   22.5283    1.0544    0.0000 C   0  0  0  0  0  0  0  0  0  0  0  0
   21.2432    0.2809    0.0000 O   0  0  0  0  0  0  0  0  0  0  0  0
   19.9307    1.0071    0.0000 C   0  0  0  0  0  0  0  0  0  0  0  0
   18.6455    0.2336    0.0000 C   0  0  0  0  0  0  0  0  0  0  0  0
   17.3330    0.9598    0.0000 O   0  0  0  0  0  0  0  0  0  0  0  0
   16.0479    0.1863    0.0000 C   0  0  0  0  0  0  0  0  0  0  0  0
   14.7354    0.9125    0.0000 C   0  0  0  0  0  0  0  0  0  0  0  0
   13.4502    0.1390    0.0000 O   0  0  0  0  0  0  0  0  0  0  0  0
   12.1377    0.8652    0.0000 C   0  0  0  0  0  0  0  0  0  0  0  0
   10.8526    0.0917    0.0000 C   0  0  0  0  0  0  0  0  0  0  0  0
    9.5401    0.8179    0.0000 O   0  0  0  0  0  0  0  0  0  0  0  0
    8.2549    0.0444    0.0000 C   0  0  0  0  0  0  0  0  0  0  0  0
    6.9424    0.7706    0.0000 C   0  0  0  0  0  0  0  0  0  0  0  0
    5.6573   -0.0029    0.0000 O   0  0  0  0  0  0  0  0  0  0  0  0
    4.3448    0.7233    0.0000 C   0  0  0  0  0  0  0  0  0  0  0  0
    3.0596   -0.0503    0.0000 C   0  0  0  0  0  0  0  0  0  0  0  0
    1.7472    0.6760    0.0000 O   0  0  0  0  0  0  0  0  0  0  0  0
    0.4620   -0.0976    0.0000 C   0  0  0  0  0  0  0  0  0  0  0  0
   -0.8505    0.6287    0.0000 C   0  0  0  0  0  0  0  0  0  0  0  0
   -2.1357   -0.1449    0.0000 O   0  0  0  0  0  0  0  0  0  0  0  0
   -3.4481    0.5814    0.0000 C   0  0  0  0  0  0  0  0  0  0  0  0
   -4.7333   -0.1922    0.0000 C   0  0  0  0  0  0  0  0  0  0  0  0
   -6.0458    0.5340    0.0000 O   0  0  0  0  0  0  0  0  0  0  0  0
   -7.3309   -0.2395    0.0000 C   0  0  0  0  0  0  0  0  0  0  0  0
   -8.6434    0.4867    0.0000 C   0  0  0  0  0  0  0  0  0  0  0  0
   -9.9286   -0.2868    0.0000 O   0  0  0  0  0  0  0  0  0  0  0  0
  -11.2411    0.4394    0.0000 C   0  0  0  0  0  0  0  0  0  0  0  0
  -12.5262   -0.3341    0.0000 C   0  0  0  0  0  0  0  0  0  0  0  0
  -13.8387    0.3921    0.0000 O   0  0  0  0  0  0  0  0  0  0  0  0
  -15.1239   -0.3814    0.0000 C   0  0  0  0  0  0  0  0  0  0  0  0
  -16.4364    0.3448    0.0000 C   0  0  0  0  0  0  0  0  0  0  0  0
  -17.7215   -0.4287    0.0000 O   0  0  0  0  0  0  0  0  0  0  0  0
  -19.0340    0.2975    0.0000 C   0  0  0  0  0  0  0  0  0  0  0  0
  -20.3192   -0.4760    0.0000 C   0  0  0  0  0  0  0  0  0  0  0  0
  -21.6316    0.2502    0.0000 O   0  0  0  0  0  0  0  0  0  0  0  0
  -22.9168   -0.5233    0.0000 C   0  0  0  0  0  0  0  0  0  0  0  0
  -24.2293    0.2029    0.0000 C   0  0  0  0  0  0  0  0  0  0  0  0
  -25.5145   -0.5707    0.0000 N   0  0  0  0  0  0  0  0  0  0  0  0
  -26.8269    0.1556    0.0000 C   0  0  0  0  0  0  0  0  0  0  0  0
  -26.8543    1.6553    0.0000 O   0  0  0  0  0  0  0  0  0  0  0  0
  -28.1121   -0.6180    0.0000 C   0  0  0  0  0  0  0  0  0  0  0  0
  -29.4246    0.1083    0.0000 C   0  0  0  0  0  0  0  0  0  0  0  0
  -30.7098   -0.6653    0.0000 C   0  0  0  0  0  0  0  0  0  0  0  0
  -32.0222    0.0609    0.0000 C   0  0  0  0  0  0  0  0  0  0  0  0
  -33.3074   -0.7126    0.0000 C   0  0  0  0  0  0  0  0  0  0  0  0
  -33.4370   -2.2070    0.0000 S   0  0  0  0  0  0  0  0  0  0  0  0
  -34.8983   -2.5455    0.0000 C   0  0  0  0  0  0  0  0  0  0  0  0
  -35.6718   -1.2603    0.0000 C   0  0  0  0  0  0  0  0  0  0  0  0
  -37.0530   -0.6753    0.0000 N   0  0  0  0  0  0  0  0  0  0  0  0
  -36.9234    0.8191    0.0000 C   0  0  0  0  0  0  0  0  0  0  0  0
  -38.0562    1.8023    0.0000 O   0  0  0  0  0  0  0  0  0  0  0  0
  -35.4621    1.1576    0.0000 N   0  0  0  0  0  0  0  0  0  0  0  0
  -34.6886   -0.1275    0.0000 C   0  0  0  0  0  0  0  0  0  0  0  0
  1  2  1  0
  2  3  2  0
  3  4  1  0
  4  5  2  0
  4  6  1  0
  6  7  1  0
  7  8  1  0
  8  9  2  0
  6 10  1  0
 10 11  2  0
 11 12  1  0
 12 13  1  0
 13 14  1  0
 14 15  1  0
 15 16  1  0
 16 17  2  0
 16 18  1  0
 18 19  1  0
 19 20  1  0
 20 21  1  0
 21 22  1  0
 22 23  1  0
 23 24  1  0
 24 25  1  0
 25 26  1  0
 26 27  1  0
 27 28  1  0
 28 29  1  0
 29 30  1  0
 30 31  1  0
 31 32  1  0
 32 33  1  0
 33 34  1  0
 34 35  1  0
 35 36  1  0
 36 37  1  0
 37 38  1  0
 38 39  1  0
 39 40  1  0
 40 41  1  0
 41 42  1  0
 42 43  1  0
 43 44  1  0
 44 45  1  0
 45 46  1  0
 46 47  1  0
 47 48  1  0
 48 49  1  0
 49 50  1  0
 50 51  1  0
 51 52  1  0
 52 53  1  0
 53 54  1  0
 54 55  1  0
 55 56  1  0
 56 57  1  0
 57 58  2  0
 57 59  1  0
 59 60  1  0
 60 61  1  0
 61 62  1  0
 63 62  1  6
 63 64  1  0
 64 65  1  0
 66 65  1  6
 66 67  1  0
 67 68  1  0
 68 69  2  0
 68 70  1  0
 71 70  1  6
 11  2  1  0
 71 63  1  0
 71 66  1  0
M  END
