
     RDKit          2D

 63 69  0  0  0  0  0  0  0  0999 V2000
    0.0327   -7.4388    0.0000 C   0  0  0  0  0  0  0  0  0  0  0  0
    1.5230   -7.6095    0.0000 C   0  0  0  0  0  0  0  0  0  0  0  0
    3.0132   -7.7803    0.0000 C   0  0  0  0  0  0  0  0  0  0  0  0
    1.3522   -9.0998    0.0000 C   0  0  0  0  0  0  0  0  0  0  0  0
    1.6937   -6.1193    0.0000 O   0  0  0  0  0  0  0  0  0  0  0  0
    3.0697   -5.5221    0.0000 C   0  0  0  0  0  0  0  0  0  0  0  0
    4.2749   -6.4151    0.0000 O   0  0  0  0  0  0  0  0  0  0  0  0
    3.2404   -4.0318    0.0000 C   0  0  0  0  0  0  0  0  0  0  0  0
    4.6164   -3.4346    0.0000 C   0  0  0  0  0  0  0  0  0  0  0  0
    4.7872   -1.9443    0.0000 C   0  0  0  0  0  0  0  0  0  0  0  0
    3.5820   -1.0513    0.0000 C   0  0  0  0  0  0  0  0  0  0  0  0
    2.2060   -1.6485    0.0000 N   0  0  0  0  0  0  0  0  0  0  0  0
    2.0352   -3.1388    0.0000 C   0  0  0  0  0  0  0  0  0  0  0  0
    0.6593   -3.7360    0.0000 C   0  0  0  0  0  0  0  0  0  0  0  0
   -0.5459   -2.8430    0.0000 O   0  0  0  0  0  0  0  0  0  0  0  0
    0.4885   -5.2263    0.0000 O   0  0  0  0  0  0  0  0  0  0  0  0
    1.0008   -0.7555    0.0000 C   0  0  0  0  0  0  0  0  0  0  0  0
    1.1716    0.7347    0.0000 O   0  0  0  0  0  0  0  0  0  0  0  0
   -0.3752   -1.3528    0.0000 C   0  0  0  0  0  0  0  0  0  0  0  0
   -1.5804   -0.4598    0.0000 N   0  0  0  0  0  0  0  0  0  0  0  0
   -1.5663    1.0402    0.0000 C   0  0  0  0  0  0  0  0  0  0  0  0
   -2.9885    1.5170    0.0000 N   0  0  0  0  0  0  0  0  0  0  0  0
   -3.8815    0.3118    0.0000 C   0  0  0  0  0  0  0  0  0  0  0  0
   -5.3747    0.1690    0.0000 C   0  0  0  0  0  0  0  0  0  0  0  0
   -6.2450    1.3907    0.0000 N   0  0  0  0  0  0  0  0  0  0  0  0
   -7.7382    1.2479    0.0000 C   0  0  0  0  0  0  0  0  0  0  0  0
   -8.3611   -0.1166    0.0000 O   0  0  0  0  0  0  0  0  0  0  0  0
   -8.6084    2.4697    0.0000 O   0  0  0  0  0  0  0  0  0  0  0  0
  -10.1016    2.3269    0.0000 C   0  0  0  0  0  0  0  0  0  0  0  0
  -10.9719    3.5486    0.0000 C   0  0  0  0  0  0  0  0  0  0  0  0
  -10.3490    4.9131    0.0000 C   0  0  0  0  0  0  0  0  0  0  0  0
  -11.2193    6.1349    0.0000 C   0  0  0  0  0  0  0  0  0  0  0  0
  -12.7124    5.9921    0.0000 C   0  0  0  0  0  0  0  0  0  0  0  0
  -13.3354    4.6275    0.0000 C   0  0  0  0  0  0  0  0  0  0  0  0
  -12.4651    3.4058    0.0000 C   0  0  0  0  0  0  0  0  0  0  0  0
  -10.7245    0.9623    0.0000 C   0  0  0  0  0  0  0  0  0  0  0  0
  -12.2177    0.8195    0.0000 C   0  0  0  0  0  0  0  0  0  0  0  0
  -12.8406   -0.5450    0.0000 C   0  0  0  0  0  0  0  0  0  0  0  0
  -11.9704   -1.7668    0.0000 C   0  0  0  0  0  0  0  0  0  0  0  0
  -10.4772   -1.6240    0.0000 C   0  0  0  0  0  0  0  0  0  0  0  0
   -9.8543   -0.2594    0.0000 C   0  0  0  0  0  0  0  0  0  0  0  0
   -5.9976   -1.1955    0.0000 N   0  0  0  0  0  0  0  0  0  0  0  0
   -5.1274   -2.4173    0.0000 C   0  0  0  0  0  0  0  0  0  0  0  0
   -3.6342   -2.2744    0.0000 N   0  0  0  0  0  0  0  0  0  0  0  0
   -3.0113   -0.9099    0.0000 C   0  0  0  0  0  0  0  0  0  0  0  0
    6.1632   -1.3471    0.0000 N   0  0  0  0  0  0  0  0  0  0  0  0
    6.3339    0.1432    0.0000 C   0  0  0  0  0  0  0  0  0  0  0  0
    5.1287    1.0362    0.0000 O   0  0  0  0  0  0  0  0  0  0  0  0
    7.7099    0.7404    0.0000 O   0  0  0  0  0  0  0  0  0  0  0  0
    7.8807    2.2307    0.0000 C   0  0  0  0  0  0  0  0  0  0  0  0
    9.2566    2.8279    0.0000 C   0  0  0  0  0  0  0  0  0  0  0  0
    9.5822    4.2921    0.0000 C   0  0  0  0  0  0  0  0  0  0  0  0
    8.7120    5.5139    0.0000 C   0  0  0  0  0  0  0  0  0  0  0  0
    9.3349    6.8784    0.0000 C   0  0  0  0  0  0  0  0  0  0  0  0
   10.8281    7.0212    0.0000 C   0  0  0  0  0  0  0  0  0  0  0  0
   11.6983    5.7995    0.0000 C   0  0  0  0  0  0  0  0  0  0  0  0
   11.0754    4.4349    0.0000 C   0  0  0  0  0  0  0  0  0  0  0  0
   11.6727    3.0590    0.0000 C   0  0  0  0  0  0  0  0  0  0  0  0
   13.0948    2.5821    0.0000 C   0  0  0  0  0  0  0  0  0  0  0  0
   13.3929    1.1120    0.0000 C   0  0  0  0  0  0  0  0  0  0  0  0
   12.2689    0.1188    0.0000 C   0  0  0  0  0  0  0  0  0  0  0  0
   10.8467    0.5957    0.0000 C   0  0  0  0  0  0  0  0  0  0  0  0
   10.5486    2.0658    0.0000 C   0  0  0  0  0  0  0  0  0  0  0  0
  1  2  1  0
  2  3  1  0
  2  4  1  0
  2  5  1  0
  5  6  1  0
  6  7  2  0
  6  8  1  0
  8  9  1  0
 10  9  1  1
 10 11  1  0
 11 12  1  0
 12 13  1  0
 13 14  1  0
 14 15  2  0
 14 16  1  0
 12 17  1  0
 17 18  2  0
 17 19  1  0
 19 20  1  0
 20 21  1  0
 21 22  2  0
 22 23  1  0
 23 24  2  0
 24 25  1  0
 25 26  1  0
 26 27  2  0
 26 28  1  0
 28 29  1  0
 29 30  1  0
 30 31  2  0
 31 32  1  0
 32 33  2  0
 33 34  1  0
 34 35  2  0
 29 36  1  0
 36 37  2  0
 37 38  1  0
 38 39  2  0
 39 40  1  0
 40 41  2  0
 24 42  1  0
 42 43  2  0
 43 44  1  0
 44 45  2  0
 10 46  1  0
 46 47  1  0
 47 48  2  0
 47 49  1  0
 49 50  1  0
 50 51  1  0
 51 52  1  0
 52 53  2  0
 53 54  1  0
 54 55  2  0
 55 56  1  0
 56 57  2  0
 57 58  1  0
 58 59  2  0
 59 60  1  0
 60 61  2  0
 61 62  1  0
 62 63  2  0
 45 20  1  0
 63 51  1  0
 45 23  1  0
 57 52  1  0
 63 58  1  0
 35 30  1  0
 41 36  1  0
M  END
