
     RDKit          2D

 64 70  0  0  0  0  0  0  0  0999 V2000
   -2.0438   -5.1723    0.0000 C   0  0  0  0  0  0  0  0  0  0  0  0
   -0.7141   -5.8665    0.0000 C   0  0  0  0  0  0  0  0  0  0  0  0
    0.6155   -6.5607    0.0000 C   0  0  0  0  0  0  0  0  0  0  0  0
   -1.4084   -7.1962    0.0000 C   0  0  0  0  0  0  0  0  0  0  0  0
   -0.0199   -4.5368    0.0000 O   0  0  0  0  0  0  0  0  0  0  0  0
    1.4787   -4.4732    0.0000 C   0  0  0  0  0  0  0  0  0  0  0  0
    2.2832   -5.7393    0.0000 O   0  0  0  0  0  0  0  0  0  0  0  0
    2.1730   -3.1435    0.0000 C   0  0  0  0  0  0  0  0  0  0  0  0
    3.6716   -3.0799    0.0000 C   0  0  0  0  0  0  0  0  0  0  0  0
    4.3658   -1.7502    0.0000 C   0  0  0  0  0  0  0  0  0  0  0  0
    3.5614   -0.4842    0.0000 C   0  0  0  0  0  0  0  0  0  0  0  0
    2.0628   -0.5478    0.0000 N   0  0  0  0  0  0  0  0  0  0  0  0
    1.3685   -1.8775    0.0000 C   0  0  0  0  0  0  0  0  0  0  0  0
   -0.1301   -1.9411    0.0000 C   0  0  0  0  0  0  0  0  0  0  0  0
   -0.9345   -0.6750    0.0000 O   0  0  0  0  0  0  0  0  0  0  0  0
   -0.8243   -3.2708    0.0000 O   0  0  0  0  0  0  0  0  0  0  0  0
    1.2583    0.7183    0.0000 C   0  0  0  0  0  0  0  0  0  0  0  0
    1.9526    2.0480    0.0000 O   0  0  0  0  0  0  0  0  0  0  0  0
   -0.2403    0.6547    0.0000 C   0  0  0  0  0  0  0  0  0  0  0  0
   -1.0447    1.9207    0.0000 N   0  0  0  0  0  0  0  0  0  0  0  0
   -0.4933    3.3157    0.0000 C   0  0  0  0  0  0  0  0  0  0  0  0
   -1.6496    4.2712    0.0000 N   0  0  0  0  0  0  0  0  0  0  0  0
   -2.9157    3.4668    0.0000 C   0  0  0  0  0  0  0  0  0  0  0  0
   -4.3606    3.8694    0.0000 C   0  0  0  0  0  0  0  0  0  0  0  0
   -4.7344    5.3220    0.0000 O   0  0  0  0  0  0  0  0  0  0  0  0
   -5.4318    2.8193    0.0000 N   0  0  0  0  0  0  0  0  0  0  0  0
   -5.0579    1.3666    0.0000 C   0  0  0  0  0  0  0  0  0  0  0  0
   -6.1291    0.3165    0.0000 N   0  0  0  0  0  0  0  0  0  0  0  0
   -7.5740    0.7191    0.0000 C   0  0  0  0  0  0  0  0  0  0  0  0
   -7.9479    2.1718    0.0000 O   0  0  0  0  0  0  0  0  0  0  0  0
   -8.6452   -0.3309    0.0000 O   0  0  0  0  0  0  0  0  0  0  0  0
  -10.0901    0.0717    0.0000 C   0  0  0  0  0  0  0  0  0  0  0  0
  -11.1613   -0.9784    0.0000 C   0  0  0  0  0  0  0  0  0  0  0  0
  -12.6062   -0.5758    0.0000 C   0  0  0  0  0  0  0  0  0  0  0  0
  -13.6774   -1.6259    0.0000 C   0  0  0  0  0  0  0  0  0  0  0  0
  -13.3036   -3.0786    0.0000 C   0  0  0  0  0  0  0  0  0  0  0  0
  -11.8586   -3.4812    0.0000 C   0  0  0  0  0  0  0  0  0  0  0  0
  -10.7875   -2.4311    0.0000 C   0  0  0  0  0  0  0  0  0  0  0  0
  -10.4640    1.5243    0.0000 C   0  0  0  0  0  0  0  0  0  0  0  0
   -9.3928    2.5744    0.0000 C   0  0  0  0  0  0  0  0  0  0  0  0
   -9.7666    4.0271    0.0000 C   0  0  0  0  0  0  0  0  0  0  0  0
  -11.2116    4.4297    0.0000 C   0  0  0  0  0  0  0  0  0  0  0  0
  -12.2827    3.3796    0.0000 C   0  0  0  0  0  0  0  0  0  0  0  0
  -11.9089    1.9269    0.0000 C   0  0  0  0  0  0  0  0  0  0  0  0
   -3.6130    0.9640    0.0000 N   0  0  0  0  0  0  0  0  0  0  0  0
   -2.5418    2.0141    0.0000 C   0  0  0  0  0  0  0  0  0  0  0  0
    5.8645   -1.6866    0.0000 N   0  0  0  0  0  0  0  0  0  0  0  0
    6.5587   -0.3569    0.0000 C   0  0  0  0  0  0  0  0  0  0  0  0
    5.7543    0.9091    0.0000 O   0  0  0  0  0  0  0  0  0  0  0  0
    8.0574   -0.2933    0.0000 O   0  0  0  0  0  0  0  0  0  0  0  0
    8.7516    1.0364    0.0000 C   0  0  0  0  0  0  0  0  0  0  0  0
   10.2502    1.1000    0.0000 C   0  0  0  0  0  0  0  0  0  0  0  0
   11.0796    2.3498    0.0000 C   0  0  0  0  0  0  0  0  0  0  0  0
   10.7058    3.8025    0.0000 C   0  0  0  0  0  0  0  0  0  0  0  0
   11.7770    4.8526    0.0000 C   0  0  0  0  0  0  0  0  0  0  0  0
   13.2219    4.4500    0.0000 C   0  0  0  0  0  0  0  0  0  0  0  0
   13.5957    2.9973    0.0000 C   0  0  0  0  0  0  0  0  0  0  0  0
   12.5246    1.9472    0.0000 C   0  0  0  0  0  0  0  0  0  0  0  0
   12.5882    0.4486    0.0000 C   0  0  0  0  0  0  0  0  0  0  0  0
   13.7445   -0.5069    0.0000 C   0  0  0  0  0  0  0  0  0  0  0  0
   13.4952   -1.9860    0.0000 C   0  0  0  0  0  0  0  0  0  0  0  0
   12.0895   -2.5097    0.0000 C   0  0  0  0  0  0  0  0  0  0  0  0
   10.9332   -1.5542    0.0000 C   0  0  0  0  0  0  0  0  0  0  0  0
   11.1826   -0.0750    0.0000 C   0  0  0  0  0  0  0  0  0  0  0  0
  1  2  1  0
  2  3  1  0
  2  4  1  0
  2  5  1  0
  5  6  1  0
  6  7  2  0
  6  8  1  0
  8  9  1  0
 10  9  1  1
 10 11  1  0
 11 12  1  0
 12 13  1  0
 13 14  1  0
 14 15  2  0
 14 16  1  0
 12 17  1  0
 17 18  2  0
 17 19  1  0
 19 20  1  0
 20 21  1  0
 21 22  2  0
 22 23  1  0
 23 24  1  0
 24 25  2  0
 24 26  1  0
 26 27  1  0
 27 28  1  0
 28 29  1  0
 29 30  2  0
 29 31  1  0
 31 32  1  0
 32 33  1  0
 33 34  2  0
 34 35  1  0
 35 36  2  0
 36 37  1  0
 37 38  2  0
 32 39  1  0
 39 40  2  0
 40 41  1  0
 41 42  2  0
 42 43  1  0
 43 44  2  0
 27 45  2  0
 45 46  1  0
 10 47  1  0
 47 48  1  0
 48 49  2  0
 48 50  1  0
 50 51  1  0
 51 52  1  0
 52 53  1  0
 53 54  2  0
 54 55  1  0
 55 56  2  0
 56 57  1  0
 57 58  2  0
 58 59  1  0
 59 60  2  0
 60 61  1  0
 61 62  2  0
 62 63  1  0
 63 64  2  0
 46 20  1  0
 64 52  1  0
 46 23  2  0
 58 53  1  0
 64 59  1  0
 38 33  1  0
 44 39  1  0
M  END
