
     RDKit          2D

  9  8  0  0  0  0  0  0  0  0999 V2000
   -3.9374    0.5982    0.0000 C   0  0  0  0  0  0  0  0  0  0  0  0
   -2.4382    0.6453    0.0000 C   0  0  0  0  0  0  0  0  0  0  0  0
   -1.6477   -0.6295    0.0000 O   0  0  0  0  0  0  0  0  0  0  0  0
   -0.1484   -0.5823    0.0000 C   0  0  0  0  0  0  0  0  0  0  0  0
    0.6420   -1.8571    0.0000 C   0  0  0  0  0  0  0  0  0  0  0  0
    2.1413   -1.8099    0.0000 Br  0  0  0  0  0  0  0  0  0  0  0  0
    0.5604    0.7397    0.0000 O   0  0  0  0  0  0  0  0  0  0  0  0
    2.0596    0.7868    0.0000 C   0  0  0  0  0  0  0  0  0  0  0  0
    2.7684    2.1088    0.0000 C   0  0  0  0  0  0  0  0  0  0  0  0
  1  2  1  0
  2  3  1  0
  3  4  1  0
  4  5  1  0
  5  6  1  0
  4  7  1  0
  7  8  1  0
  8  9  1  0
M  END
