
     RDKit          2D

 17 17  0  0  0  0  0  0  0  0999 V2000
   -5.7031   -0.9876    0.0000 C   0  0  0  0  0  0  0  0  0  0  0  0
   -4.3366   -0.3691    0.0000 C   0  0  0  0  0  0  0  0  0  0  0  0
   -3.1177   -1.2433    0.0000 O   0  0  0  0  0  0  0  0  0  0  0  0
   -1.7511   -0.6248    0.0000 C   0  0  0  0  0  0  0  0  0  0  0  0
   -0.5322   -1.4990    0.0000 C   0  0  0  0  0  0  0  0  0  0  0  0
    0.8344   -0.8805    0.0000 N   0  0  0  0  0  0  0  0  0  0  0  0
    0.9820    0.6122    0.0000 C   0  0  0  0  0  0  0  0  0  0  0  0
    2.3485    1.2307    0.0000 C   0  0  0  0  0  0  0  0  0  0  0  0
    2.4962    2.7234    0.0000 I   0  0  0  0  0  0  0  0  0  0  0  0
    3.5675    0.3565    0.0000 C   0  0  0  0  0  0  0  0  0  0  0  0
    4.9340    0.9750    0.0000 N   0  0  0  0  0  0  0  0  0  0  0  0
    3.4198   -1.1362    0.0000 N   0  0  0  0  0  0  0  0  0  0  0  0
    2.0533   -1.7547    0.0000 C   0  0  0  0  0  0  0  0  0  0  0  0
    1.9056   -3.2474    0.0000 O   0  0  0  0  0  0  0  0  0  0  0  0
   -1.6035    0.8679    0.0000 O   0  0  0  0  0  0  0  0  0  0  0  0
   -2.8224    1.7421    0.0000 C   0  0  0  0  0  0  0  0  0  0  0  0
   -2.6747    3.2349    0.0000 C   0  0  0  0  0  0  0  0  0  0  0  0
  1  2  1  0
  2  3  1  0
  3  4  1  0
  4  5  1  0
  5  6  1  0
  6  7  1  0
  7  8  2  0
  8  9  1  0
  8 10  1  0
 10 11  1  0
 10 12  2  0
 12 13  1  0
 13 14  2  0
  4 15  1  0
 15 16  1  0
 16 17  1  0
 13  6  1  0
M  END
