
     RDKit          2D

 10  9  0  0  0  0  0  0  0  0999 V2000
   -0.7874    1.9755    0.0000 O   0  0  0  0  0  0  0  0  0  0  0  0
   -0.6841    0.4790    0.0000 C   0  0  0  0  0  0  0  0  0  0  0  0
    0.6635   -0.1797    0.0000 N   0  0  0  0  0  0  0  0  0  0  0  0
    1.9078    0.6579    0.0000 C   0  0  0  0  0  0  0  0  0  0  0  0
    3.2554   -0.0008    0.0000 C   0  0  0  0  0  0  0  0  0  0  0  0
    4.6030   -0.6596    0.0000 C   0  0  0  0  0  0  0  0  0  0  0  0
   -1.9284   -0.3587    0.0000 C   0  0  0  0  0  0  0  0  0  0  0  0
   -3.1727   -1.1963    0.0000 F   0  0  0  0  0  0  0  0  0  0  0  0
   -2.7661    0.8856    0.0000 F   0  0  0  0  0  0  0  0  0  0  0  0
   -1.0908   -1.6030    0.0000 F   0  0  0  0  0  0  0  0  0  0  0  0
  1  2  2  0
  2  3  1  0
  3  4  1  0
  4  5  1  0
  5  6  3  0
  2  7  1  0
  7  8  1  0
  7  9  1  0
  7 10  1  0
M  END
