
     RDKit          2D

 26 26  0  0  0  0  0  0  0  0999 V2000
    7.3039   -3.5240    0.0000 C   0  0  0  0  0  0  0  0  0  0  0  0
    5.9737   -2.8309    0.0000 C   0  0  0  0  0  0  0  0  0  0  0  0
    5.9088   -1.3323    0.0000 O   0  0  0  0  0  0  0  0  0  0  0  0
    4.5786   -0.6391    0.0000 C   0  0  0  0  0  0  0  0  0  0  0  0
    4.5137    0.8595    0.0000 C   0  0  0  0  0  0  0  0  0  0  0  0
    3.1834    1.5526    0.0000 N   0  0  0  0  0  0  0  0  0  0  0  0
    1.9180    0.7471    0.0000 C   0  0  0  0  0  0  0  0  0  0  0  0
    0.5878    1.4402    0.0000 C   0  0  0  0  0  0  0  0  0  0  0  0
   -0.6776    0.6348    0.0000 C   0  0  0  0  0  0  0  0  0  0  0  0
   -1.9430   -0.1707    0.0000 C   0  0  0  0  0  0  0  0  0  0  0  0
   -3.2084   -0.9762    0.0000 C   0  0  0  0  0  0  0  0  0  0  0  0
   -4.5386   -0.2831    0.0000 N   0  0  0  0  0  0  0  0  0  0  0  0
   -5.8040   -1.0885    0.0000 C   0  0  0  0  0  0  0  0  0  0  0  0
   -5.7392   -2.5871    0.0000 O   0  0  0  0  0  0  0  0  0  0  0  0
   -7.1343   -0.3954    0.0000 C   0  0  0  0  0  0  0  0  0  0  0  0
   -8.4645    0.2977    0.0000 F   0  0  0  0  0  0  0  0  0  0  0  0
   -7.8274   -1.7257    0.0000 F   0  0  0  0  0  0  0  0  0  0  0  0
   -6.4412    0.9348    0.0000 F   0  0  0  0  0  0  0  0  0  0  0  0
    0.5229    2.9388    0.0000 C   0  0  0  0  0  0  0  0  0  0  0  0
   -0.8073    3.6319    0.0000 N   0  0  0  0  0  0  0  0  0  0  0  0
    1.7883    3.7443    0.0000 N   0  0  0  0  0  0  0  0  0  0  0  0
    3.1186    3.0512    0.0000 C   0  0  0  0  0  0  0  0  0  0  0  0
    4.3840    3.8566    0.0000 O   0  0  0  0  0  0  0  0  0  0  0  0
    3.3132   -1.4446    0.0000 O   0  0  0  0  0  0  0  0  0  0  0  0
    3.3780   -2.9432    0.0000 C   0  0  0  0  0  0  0  0  0  0  0  0
    2.1126   -3.7487    0.0000 C   0  0  0  0  0  0  0  0  0  0  0  0
  1  2  1  0
  2  3  1  0
  3  4  1  0
  4  5  1  0
  5  6  1  0
  6  7  1  0
  7  8  2  0
  8  9  1  0
  9 10  3  0
 10 11  1  0
 11 12  1  0
 12 13  1  0
 13 14  2  0
 13 15  1  0
 15 16  1  0
 15 17  1  0
 15 18  1  0
  8 19  1  0
 19 20  1  0
 19 21  2  0
 21 22  1  0
 22 23  2  0
  4 24  1  0
 24 25  1  0
 25 26  1  0
 22  6  1  0
M  END
