
     RDKit          2D

 26 26  0  0  0  0  0  0  0  0999 V2000
    7.8881   -2.7923    0.0000 C   0  0  0  0  0  0  0  0  0  0  0  0
    6.4626   -2.3257    0.0000 C   0  0  0  0  0  0  0  0  0  0  0  0
    6.1539   -0.8578    0.0000 O   0  0  0  0  0  0  0  0  0  0  0  0
    4.7283   -0.3912    0.0000 C   0  0  0  0  0  0  0  0  0  0  0  0
    4.4196    1.0767    0.0000 C   0  0  0  0  0  0  0  0  0  0  0  0
    2.9941    1.5434    0.0000 N   0  0  0  0  0  0  0  0  0  0  0  0
    1.8772    0.5421    0.0000 C   0  0  0  0  0  0  0  0  0  0  0  0
    0.4516    1.0088    0.0000 C   0  0  0  0  0  0  0  0  0  0  0  0
   -0.6653    0.0075    0.0000 C   0  0  0  0  0  0  0  0  0  0  0  0
   -2.0909    0.4741    0.0000 C   0  0  0  0  0  0  0  0  0  0  0  0
   -3.2078   -0.5271    0.0000 C   0  0  0  0  0  0  0  0  0  0  0  0
   -4.6333   -0.0605    0.0000 N   0  0  0  0  0  0  0  0  0  0  0  0
   -5.7502   -1.0618    0.0000 C   0  0  0  0  0  0  0  0  0  0  0  0
   -5.4416   -2.5297    0.0000 O   0  0  0  0  0  0  0  0  0  0  0  0
   -7.1758   -0.5951    0.0000 C   0  0  0  0  0  0  0  0  0  0  0  0
   -8.6014   -0.1285    0.0000 F   0  0  0  0  0  0  0  0  0  0  0  0
   -7.6425   -2.0207    0.0000 F   0  0  0  0  0  0  0  0  0  0  0  0
   -6.7092    0.8304    0.0000 F   0  0  0  0  0  0  0  0  0  0  0  0
    0.1429    2.4766    0.0000 C   0  0  0  0  0  0  0  0  0  0  0  0
   -1.2826    2.9433    0.0000 N   0  0  0  0  0  0  0  0  0  0  0  0
    1.2598    3.4779    0.0000 N   0  0  0  0  0  0  0  0  0  0  0  0
    2.6854    3.0113    0.0000 C   0  0  0  0  0  0  0  0  0  0  0  0
    3.8023    4.0125    0.0000 O   0  0  0  0  0  0  0  0  0  0  0  0
    3.6114   -1.3924    0.0000 O   0  0  0  0  0  0  0  0  0  0  0  0
    3.9201   -2.8603    0.0000 C   0  0  0  0  0  0  0  0  0  0  0  0
    2.8032   -3.8616    0.0000 C   0  0  0  0  0  0  0  0  0  0  0  0
  1  2  1  0
  2  3  1  0
  3  4  1  0
  4  5  1  0
  5  6  1  0
  6  7  1  0
  7  8  2  0
  8  9  1  0
  9 10  1  0
 10 11  1  0
 11 12  1  0
 12 13  1  0
 13 14  2  0
 13 15  1  0
 15 16  1  0
 15 17  1  0
 15 18  1  0
  8 19  1  0
 19 20  1  0
 19 21  2  0
 21 22  1  0
 22 23  2  0
  4 24  1  0
 24 25  1  0
 25 26  1  0
 22  6  1  0
M  END
