
     RDKit          2D

 20 20  0  0  0  0  0  0  0  0999 V2000
   -6.5142    0.9339    0.0000 C   0  0  0  0  0  0  0  0  0  0  0  0
   -5.0147    0.9732    0.0000 C   0  0  0  0  0  0  0  0  0  0  0  0
   -4.2309   -0.3058    0.0000 O   0  0  0  0  0  0  0  0  0  0  0  0
   -2.7315   -0.2665    0.0000 C   0  0  0  0  0  0  0  0  0  0  0  0
   -1.9477   -1.5454    0.0000 C   0  0  0  0  0  0  0  0  0  0  0  0
   -0.4482   -1.5062    0.0000 N   0  0  0  0  0  0  0  0  0  0  0  0
    0.2675   -0.1879    0.0000 C   0  0  0  0  0  0  0  0  0  0  0  0
    1.7670   -0.1486    0.0000 C   0  0  0  0  0  0  0  0  0  0  0  0
    2.4827    1.1696    0.0000 C   0  0  0  0  0  0  0  0  0  0  0  0
    3.9822    1.2089    0.0000 C   0  0  0  0  0  0  0  0  0  0  0  0
    4.6979    2.5272    0.0000 C   0  0  0  0  0  0  0  0  0  0  0  0
    6.1974    2.5664    0.0000 N   0  0  0  0  0  0  0  0  0  0  0  0
    2.5508   -1.4276    0.0000 C   0  0  0  0  0  0  0  0  0  0  0  0
    4.0503   -1.3883    0.0000 N   0  0  0  0  0  0  0  0  0  0  0  0
    1.8351   -2.7458    0.0000 N   0  0  0  0  0  0  0  0  0  0  0  0
    0.3356   -2.7851    0.0000 C   0  0  0  0  0  0  0  0  0  0  0  0
   -0.3801   -4.1033    0.0000 O   0  0  0  0  0  0  0  0  0  0  0  0
   -2.0157    1.0517    0.0000 O   0  0  0  0  0  0  0  0  0  0  0  0
   -2.7995    2.3307    0.0000 C   0  0  0  0  0  0  0  0  0  0  0  0
   -2.0838    3.6489    0.0000 C   0  0  0  0  0  0  0  0  0  0  0  0
  1  2  1  0
  2  3  1  0
  3  4  1  0
  4  5  1  0
  5  6  1  0
  6  7  1  0
  7  8  2  0
  8  9  1  0
  9 10  1  0
 10 11  1  0
 11 12  1  0
  8 13  1  0
 13 14  1  0
 13 15  2  0
 15 16  1  0
 16 17  2  0
  4 18  1  0
 18 19  1  0
 19 20  1  0
 16  6  1  0
M  END
