
     RDKit          2D

 64 66  0  0  0  0  0  0  0  0999 V2000
   30.4488   -1.4462    0.0000 O   0  0  0  0  0  0  0  0  0  0  0  0
   29.1667   -0.6676    0.0000 C   0  0  0  0  0  0  0  0  0  0  0  0
   29.1999    0.8321    0.0000 O   0  0  0  0  0  0  0  0  0  0  0  0
   30.5152    1.5531    0.0000 N   0  0  0  0  0  0  0  0  0  0  0  0
   30.7050    3.0411    0.0000 C   0  0  0  0  0  0  0  0  0  0  0  0
   29.6128    4.0692    0.0000 O   0  0  0  0  0  0  0  0  0  0  0  0
   32.1788    3.3204    0.0000 C   0  0  0  0  0  0  0  0  0  0  0  0
   32.8999    2.0050    0.0000 C   0  0  0  0  0  0  0  0  0  0  0  0
   31.8717    0.9128    0.0000 C   0  0  0  0  0  0  0  0  0  0  0  0
   32.1510   -0.5610    0.0000 O   0  0  0  0  0  0  0  0  0  0  0  0
   27.8514   -1.3886    0.0000 C   0  0  0  0  0  0  0  0  0  0  0  0
   26.5693   -0.6100    0.0000 C   0  0  0  0  0  0  0  0  0  0  0  0
   25.2539   -1.3311    0.0000 O   0  0  0  0  0  0  0  0  0  0  0  0
   23.9718   -0.5525    0.0000 C   0  0  0  0  0  0  0  0  0  0  0  0
   22.6565   -1.2736    0.0000 C   0  0  0  0  0  0  0  0  0  0  0  0
   21.3744   -0.4950    0.0000 O   0  0  0  0  0  0  0  0  0  0  0  0
   20.0591   -1.2160    0.0000 C   0  0  0  0  0  0  0  0  0  0  0  0
   18.7769   -0.4375    0.0000 C   0  0  0  0  0  0  0  0  0  0  0  0
   17.4616   -1.1585    0.0000 O   0  0  0  0  0  0  0  0  0  0  0  0
   16.1795   -0.3799    0.0000 C   0  0  0  0  0  0  0  0  0  0  0  0
   14.8642   -1.1010    0.0000 C   0  0  0  0  0  0  0  0  0  0  0  0
   13.5821   -0.3224    0.0000 O   0  0  0  0  0  0  0  0  0  0  0  0
   12.2667   -1.0435    0.0000 C   0  0  0  0  0  0  0  0  0  0  0  0
   10.9846   -0.2649    0.0000 C   0  0  0  0  0  0  0  0  0  0  0  0
    9.6693   -0.9859    0.0000 O   0  0  0  0  0  0  0  0  0  0  0  0
    8.3872   -0.2073    0.0000 C   0  0  0  0  0  0  0  0  0  0  0  0
    7.0719   -0.9284    0.0000 C   0  0  0  0  0  0  0  0  0  0  0  0
    5.7898   -0.1498    0.0000 O   0  0  0  0  0  0  0  0  0  0  0  0
    4.4744   -0.8709    0.0000 C   0  0  0  0  0  0  0  0  0  0  0  0
    3.1923   -0.0923    0.0000 C   0  0  0  0  0  0  0  0  0  0  0  0
    1.8770   -0.8133    0.0000 O   0  0  0  0  0  0  0  0  0  0  0  0
    0.5949   -0.0348    0.0000 C   0  0  0  0  0  0  0  0  0  0  0  0
   -0.7205   -0.7558    0.0000 C   0  0  0  0  0  0  0  0  0  0  0  0
   -2.0026    0.0228    0.0000 O   0  0  0  0  0  0  0  0  0  0  0  0
   -3.3179   -0.6983    0.0000 C   0  0  0  0  0  0  0  0  0  0  0  0
   -4.6000    0.0803    0.0000 C   0  0  0  0  0  0  0  0  0  0  0  0
   -5.9153   -0.6408    0.0000 O   0  0  0  0  0  0  0  0  0  0  0  0
   -7.1974    0.1378    0.0000 C   0  0  0  0  0  0  0  0  0  0  0  0
   -8.5128   -0.5832    0.0000 C   0  0  0  0  0  0  0  0  0  0  0  0
   -9.7949    0.1954    0.0000 O   0  0  0  0  0  0  0  0  0  0  0  0
  -11.1102   -0.5257    0.0000 C   0  0  0  0  0  0  0  0  0  0  0  0
  -12.3923    0.2529    0.0000 C   0  0  0  0  0  0  0  0  0  0  0  0
  -13.7076   -0.4682    0.0000 O   0  0  0  0  0  0  0  0  0  0  0  0
  -14.9898    0.3104    0.0000 C   0  0  0  0  0  0  0  0  0  0  0  0
  -16.3051   -0.4106    0.0000 C   0  0  0  0  0  0  0  0  0  0  0  0
  -17.5872    0.3679    0.0000 O   0  0  0  0  0  0  0  0  0  0  0  0
  -18.9025   -0.3531    0.0000 C   0  0  0  0  0  0  0  0  0  0  0  0
  -20.1846    0.4255    0.0000 C   0  0  0  0  0  0  0  0  0  0  0  0
  -21.5000   -0.2956    0.0000 N   0  0  0  0  0  0  0  0  0  0  0  0
  -22.7821    0.4830    0.0000 C   0  0  0  0  0  0  0  0  0  0  0  0
  -22.7489    1.9826    0.0000 O   0  0  0  0  0  0  0  0  0  0  0  0
  -24.0974   -0.2381    0.0000 C   0  0  0  0  0  0  0  0  0  0  0  0
  -25.3795    0.5405    0.0000 C   0  0  0  0  0  0  0  0  0  0  0  0
  -26.6948   -0.1805    0.0000 C   0  0  0  0  0  0  0  0  0  0  0  0
  -27.9770    0.5981    0.0000 C   0  0  0  0  0  0  0  0  0  0  0  0
  -29.2923   -0.1230    0.0000 C   0  0  0  0  0  0  0  0  0  0  0  0
  -29.4821   -1.6109    0.0000 S   0  0  0  0  0  0  0  0  0  0  0  0
  -30.9558   -1.8902    0.0000 C   0  0  0  0  0  0  0  0  0  0  0  0
  -31.6769   -0.5749    0.0000 C   0  0  0  0  0  0  0  0  0  0  0  0
  -33.0334    0.0654    0.0000 N   0  0  0  0  0  0  0  0  0  0  0  0
  -32.8436    1.5533    0.0000 C   0  0  0  0  0  0  0  0  0  0  0  0
  -33.9358    2.5815    0.0000 O   0  0  0  0  0  0  0  0  0  0  0  0
  -31.3698    1.8326    0.0000 N   0  0  0  0  0  0  0  0  0  0  0  0
  -30.6488    0.5173    0.0000 C   0  0  0  0  0  0  0  0  0  0  0  0
  1  2  2  0
  2  3  1  0
  3  4  1  0
  4  5  1  0
  5  6  2  0
  5  7  1  0
  7  8  1  0
  8  9  1  0
  9 10  2  0
  2 11  1  0
 11 12  1  0
 12 13  1  0
 13 14  1  0
 14 15  1  0
 15 16  1  0
 16 17  1  0
 17 18  1  0
 18 19  1  0
 19 20  1  0
 20 21  1  0
 21 22  1  0
 22 23  1  0
 23 24  1  0
 24 25  1  0
 25 26  1  0
 26 27  1  0
 27 28  1  0
 28 29  1  0
 29 30  1  0
 30 31  1  0
 31 32  1  0
 32 33  1  0
 33 34  1  0
 34 35  1  0
 35 36  1  0
 36 37  1  0
 37 38  1  0
 38 39  1  0
 39 40  1  0
 40 41  1  0
 41 42  1  0
 42 43  1  0
 43 44  1  0
 44 45  1  0
 45 46  1  0
 46 47  1  0
 47 48  1  0
 48 49  1  0
 49 50  1  0
 50 51  2  0
 50 52  1  0
 52 53  1  0
 53 54  1  0
 54 55  1  0
 56 55  1  6
 56 57  1  0
 57 58  1  0
 59 58  1  6
 59 60  1  0
 60 61  1  0
 61 62  2  0
 61 63  1  0
 64 63  1  6
  9  4  1  0
 64 56  1  0
 64 59  1  0
M  END
