
     RDKit          2D

 76 78  0  0  0  0  0  0  0  0999 V2000
   28.6458   -7.0359    0.0000 C   0  0  0  0  0  0  0  0  0  0  0  0
   28.5954   -5.5368    0.0000 C   0  0  0  0  0  0  0  0  0  0  0  0
   29.8685   -4.7436    0.0000 O   0  0  0  0  0  0  0  0  0  0  0  0
   29.8182   -3.2444    0.0000 C   0  0  0  0  0  0  0  0  0  0  0  0
   31.0913   -2.4512    0.0000 C   0  0  0  0  0  0  0  0  0  0  0  0
   31.0409   -0.9521    0.0000 N   0  0  0  0  0  0  0  0  0  0  0  0
   29.7174   -0.2461    0.0000 C   0  0  0  0  0  0  0  0  0  0  0  0
   29.6671    1.2530    0.0000 C   0  0  0  0  0  0  0  0  0  0  0  0
   28.3436    1.9590    0.0000 C   0  0  0  0  0  0  0  0  0  0  0  0
   27.0705    1.1658    0.0000 C   0  0  0  0  0  0  0  0  0  0  0  0
   25.7470    1.8718    0.0000 C   0  0  0  0  0  0  0  0  0  0  0  0
   24.4738    1.0786    0.0000 N   0  0  0  0  0  0  0  0  0  0  0  0
   23.1504    1.7845    0.0000 C   0  0  0  0  0  0  0  0  0  0  0  0
   23.1000    3.2837    0.0000 O   0  0  0  0  0  0  0  0  0  0  0  0
   21.8772    0.9914    0.0000 C   0  0  0  0  0  0  0  0  0  0  0  0
   20.5537    1.6973    0.0000 C   0  0  0  0  0  0  0  0  0  0  0  0
   19.2806    0.9041    0.0000 O   0  0  0  0  0  0  0  0  0  0  0  0
   17.9571    1.6101    0.0000 C   0  0  0  0  0  0  0  0  0  0  0  0
   16.6840    0.8169    0.0000 C   0  0  0  0  0  0  0  0  0  0  0  0
   15.3605    1.5229    0.0000 O   0  0  0  0  0  0  0  0  0  0  0  0
   14.0874    0.7297    0.0000 C   0  0  0  0  0  0  0  0  0  0  0  0
   12.7639    1.4356    0.0000 C   0  0  0  0  0  0  0  0  0  0  0  0
   11.4908    0.6424    0.0000 O   0  0  0  0  0  0  0  0  0  0  0  0
   10.1673    1.3484    0.0000 C   0  0  0  0  0  0  0  0  0  0  0  0
    8.8942    0.5552    0.0000 C   0  0  0  0  0  0  0  0  0  0  0  0
    7.5707    1.2612    0.0000 O   0  0  0  0  0  0  0  0  0  0  0  0
    6.2976    0.4680    0.0000 C   0  0  0  0  0  0  0  0  0  0  0  0
    4.9741    1.1739    0.0000 C   0  0  0  0  0  0  0  0  0  0  0  0
    3.7010    0.3807    0.0000 O   0  0  0  0  0  0  0  0  0  0  0  0
    2.3775    1.0867    0.0000 C   0  0  0  0  0  0  0  0  0  0  0  0
    1.1043    0.2935    0.0000 C   0  0  0  0  0  0  0  0  0  0  0  0
   -0.2191    0.9995    0.0000 O   0  0  0  0  0  0  0  0  0  0  0  0
   -1.4923    0.2063    0.0000 C   0  0  0  0  0  0  0  0  0  0  0  0
   -2.8158    0.9123    0.0000 C   0  0  0  0  0  0  0  0  0  0  0  0
   -4.0889    0.1191    0.0000 O   0  0  0  0  0  0  0  0  0  0  0  0
   -5.4124    0.8250    0.0000 C   0  0  0  0  0  0  0  0  0  0  0  0
   -6.6855    0.0318    0.0000 C   0  0  0  0  0  0  0  0  0  0  0  0
   -8.0090    0.7378    0.0000 O   0  0  0  0  0  0  0  0  0  0  0  0
   -9.2821   -0.0554    0.0000 C   0  0  0  0  0  0  0  0  0  0  0  0
  -10.6056    0.6506    0.0000 C   0  0  0  0  0  0  0  0  0  0  0  0
  -11.8787   -0.1426    0.0000 O   0  0  0  0  0  0  0  0  0  0  0  0
  -13.2022    0.5633    0.0000 C   0  0  0  0  0  0  0  0  0  0  0  0
  -14.4753   -0.2299    0.0000 C   0  0  0  0  0  0  0  0  0  0  0  0
  -15.7988    0.4761    0.0000 O   0  0  0  0  0  0  0  0  0  0  0  0
  -17.0719   -0.3171    0.0000 C   0  0  0  0  0  0  0  0  0  0  0  0
  -18.3954    0.3889    0.0000 C   0  0  0  0  0  0  0  0  0  0  0  0
  -19.6686   -0.4043    0.0000 O   0  0  0  0  0  0  0  0  0  0  0  0
  -20.9920    0.3016    0.0000 C   0  0  0  0  0  0  0  0  0  0  0  0
  -22.2652   -0.4915    0.0000 C   0  0  0  0  0  0  0  0  0  0  0  0
  -23.5886    0.2144    0.0000 O   0  0  0  0  0  0  0  0  0  0  0  0
  -24.8618   -0.5788    0.0000 C   0  0  0  0  0  0  0  0  0  0  0  0
  -26.1853    0.1272    0.0000 C   0  0  0  0  0  0  0  0  0  0  0  0
  -27.4584   -0.6660    0.0000 N   0  0  0  0  0  0  0  0  0  0  0  0
  -28.7819    0.0400    0.0000 C   0  0  0  0  0  0  0  0  0  0  0  0
  -28.8322    1.5391    0.0000 O   0  0  0  0  0  0  0  0  0  0  0  0
  -30.0550   -0.7532    0.0000 C   0  0  0  0  0  0  0  0  0  0  0  0
  -31.3785   -0.0473    0.0000 C   0  0  0  0  0  0  0  0  0  0  0  0
  -32.6516   -0.8405    0.0000 C   0  0  0  0  0  0  0  0  0  0  0  0
  -33.9751   -0.1345    0.0000 C   0  0  0  0  0  0  0  0  0  0  0  0
  -35.2482   -0.9277    0.0000 C   0  0  0  0  0  0  0  0  0  0  0  0
  -35.3548   -2.4239    0.0000 S   0  0  0  0  0  0  0  0  0  0  0  0
  -36.8108   -2.7849    0.0000 C   0  0  0  0  0  0  0  0  0  0  0  0
  -37.6040   -1.5117    0.0000 C   0  0  0  0  0  0  0  0  0  0  0  0
  -38.9940   -0.9480    0.0000 N   0  0  0  0  0  0  0  0  0  0  0  0
  -38.8874    0.5482    0.0000 C   0  0  0  0  0  0  0  0  0  0  0  0
  -40.0352    1.5139    0.0000 O   0  0  0  0  0  0  0  0  0  0  0  0
  -37.4314    0.9092    0.0000 N   0  0  0  0  0  0  0  0  0  0  0  0
  -36.6382   -0.3639    0.0000 C   0  0  0  0  0  0  0  0  0  0  0  0
   30.9402    2.0462    0.0000 C   0  0  0  0  0  0  0  0  0  0  0  0
   30.8898    3.5454    0.0000 N   0  0  0  0  0  0  0  0  0  0  0  0
   32.2637    1.3403    0.0000 N   0  0  0  0  0  0  0  0  0  0  0  0
   32.3140   -0.1589    0.0000 C   0  0  0  0  0  0  0  0  0  0  0  0
   33.6375   -0.8648    0.0000 O   0  0  0  0  0  0  0  0  0  0  0  0
   28.4947   -2.5385    0.0000 O   0  0  0  0  0  0  0  0  0  0  0  0
   27.2215   -3.3316    0.0000 C   0  0  0  0  0  0  0  0  0  0  0  0
   25.8981   -2.6257    0.0000 C   0  0  0  0  0  0  0  0  0  0  0  0
  1  2  1  0
  2  3  1  0
  3  4  1  0
  4  5  1  0
  5  6  1  0
  6  7  1  0
  7  8  2  0
  8  9  1  0
  9 10  1  0
 10 11  1  0
 11 12  1  0
 12 13  1  0
 13 14  2  0
 13 15  1  0
 15 16  1  0
 16 17  1  0
 17 18  1  0
 18 19  1  0
 19 20  1  0
 20 21  1  0
 21 22  1  0
 22 23  1  0
 23 24  1  0
 24 25  1  0
 25 26  1  0
 26 27  1  0
 27 28  1  0
 28 29  1  0
 29 30  1  0
 30 31  1  0
 31 32  1  0
 32 33  1  0
 33 34  1  0
 34 35  1  0
 35 36  1  0
 36 37  1  0
 37 38  1  0
 38 39  1  0
 39 40  1  0
 40 41  1  0
 41 42  1  0
 42 43  1  0
 43 44  1  0
 44 45  1  0
 45 46  1  0
 46 47  1  0
 47 48  1  0
 48 49  1  0
 49 50  1  0
 50 51  1  0
 51 52  1  0
 52 53  1  0
 53 54  1  0
 54 55  2  0
 54 56  1  0
 56 57  1  0
 57 58  1  0
 58 59  1  0
 60 59  1  6
 60 61  1  0
 61 62  1  0
 63 62  1  6
 63 64  1  0
 64 65  1  0
 65 66  2  0
 65 67  1  0
 68 67  1  6
  8 69  1  0
 69 70  1  0
 69 71  2  0
 71 72  1  0
 72 73  2  0
  4 74  1  0
 74 75  1  0
 75 76  1  0
 72  6  1  0
 68 60  1  0
 68 63  1  0
M  END
