
     RDKit          2D

 30 32  0  0  0  0  0  0  0  0999 V2000
   -9.8208   -0.8214    0.0000 C   0  0  0  0  0  0  0  0  0  0  0  0
   -8.9956    0.4312    0.0000 C   0  0  0  0  0  0  0  0  0  0  0  0
   -8.1704    1.6838    0.0000 C   0  0  0  0  0  0  0  0  0  0  0  0
  -10.2483    1.2564    0.0000 C   0  0  0  0  0  0  0  0  0  0  0  0
   -7.7430   -0.3940    0.0000 O   0  0  0  0  0  0  0  0  0  0  0  0
   -6.4021    0.2782    0.0000 C   0  0  0  0  0  0  0  0  0  0  0  0
   -6.3137    1.7756    0.0000 O   0  0  0  0  0  0  0  0  0  0  0  0
   -5.1494   -0.5470    0.0000 C   0  0  0  0  0  0  0  0  0  0  0  0
   -3.8085    0.1252    0.0000 C   0  0  0  0  0  0  0  0  0  0  0  0
   -2.5559   -0.7000    0.0000 C   0  0  0  0  0  0  0  0  0  0  0  0
   -2.6442   -2.1974    0.0000 C   0  0  0  0  0  0  0  0  0  0  0  0
   -3.9852   -2.8696    0.0000 O   0  0  0  0  0  0  0  0  0  0  0  0
   -1.2149   -0.0278    0.0000 N   0  0  0  0  0  0  0  0  0  0  0  0
    0.0377   -0.8530    0.0000 C   0  0  0  0  0  0  0  0  0  0  0  0
   -0.0506   -2.3504    0.0000 O   0  0  0  0  0  0  0  0  0  0  0  0
    1.3786   -0.1808    0.0000 O   0  0  0  0  0  0  0  0  0  0  0  0
    2.6313   -1.0060    0.0000 C   0  0  0  0  0  0  0  0  0  0  0  0
    3.9722   -0.3338    0.0000 C   0  0  0  0  0  0  0  0  0  0  0  0
    5.3042   -1.0235    0.0000 C   0  0  0  0  0  0  0  0  0  0  0  0
    5.6829   -2.4749    0.0000 C   0  0  0  0  0  0  0  0  0  0  0  0
    7.1292   -2.8727    0.0000 C   0  0  0  0  0  0  0  0  0  0  0  0
    8.1968   -1.8190    0.0000 C   0  0  0  0  0  0  0  0  0  0  0  0
    7.8181   -0.3676    0.0000 C   0  0  0  0  0  0  0  0  0  0  0  0
    6.3718    0.0302    0.0000 C   0  0  0  0  0  0  0  0  0  0  0  0
    5.6996    1.3711    0.0000 C   0  0  0  0  0  0  0  0  0  0  0  0
    6.2463    2.7679    0.0000 C   0  0  0  0  0  0  0  0  0  0  0  0
    5.3100    3.9398    0.0000 C   0  0  0  0  0  0  0  0  0  0  0  0
    3.8270    3.7149    0.0000 C   0  0  0  0  0  0  0  0  0  0  0  0
    3.2803    2.3181    0.0000 C   0  0  0  0  0  0  0  0  0  0  0  0
    4.2166    1.1462    0.0000 C   0  0  0  0  0  0  0  0  0  0  0  0
  1  2  1  0
  2  3  1  0
  2  4  1  0
  2  5  1  0
  5  6  1  0
  6  7  2  0
  6  8  1  0
  8  9  1  0
 10  9  1  6
 10 11  1  0
 11 12  1  0
 10 13  1  0
 13 14  1  0
 14 15  2  0
 14 16  1  0
 16 17  1  0
 17 18  1  0
 18 19  1  0
 19 20  2  0
 20 21  1  0
 21 22  2  0
 22 23  1  0
 23 24  2  0
 24 25  1  0
 25 26  2  0
 26 27  1  0
 27 28  2  0
 28 29  1  0
 29 30  2  0
 30 18  1  0
 24 19  1  0
 30 25  1  0
M  END
