
     RDKit          2D

 35 37  0  0  0  0  0  0  0  0999 V2000
   -8.9198    1.2475    0.0000 C   0  0  0  0  0  0  0  0  0  0  0  0
   -7.9241    2.3694    0.0000 C   0  0  0  0  0  0  0  0  0  0  0  0
   -6.9284    3.4912    0.0000 C   0  0  0  0  0  0  0  0  0  0  0  0
   -9.0460    3.3650    0.0000 C   0  0  0  0  0  0  0  0  0  0  0  0
   -6.8022    1.3737    0.0000 O   0  0  0  0  0  0  0  0  0  0  0  0
   -5.3790    1.8474    0.0000 C   0  0  0  0  0  0  0  0  0  0  0  0
   -5.0777    3.3169    0.0000 O   0  0  0  0  0  0  0  0  0  0  0  0
   -4.2571    0.8518    0.0000 C   0  0  0  0  0  0  0  0  0  0  0  0
   -2.8339    1.3255    0.0000 C   0  0  0  0  0  0  0  0  0  0  0  0
   -1.7120    0.3298    0.0000 C   0  0  0  0  0  0  0  0  0  0  0  0
   -2.0133   -1.1396    0.0000 C   0  0  0  0  0  0  0  0  0  0  0  0
   -3.4365   -1.6133    0.0000 N   0  0  0  0  0  0  0  0  0  0  0  0
   -3.7379   -3.0828    0.0000 C   0  0  0  0  0  0  0  0  0  0  0  0
   -5.1611   -3.5565    0.0000 C   0  0  0  0  0  0  0  0  0  0  0  0
   -6.2830   -2.5608    0.0000 O   0  0  0  0  0  0  0  0  0  0  0  0
   -5.4624   -5.0259    0.0000 O   0  0  0  0  0  0  0  0  0  0  0  0
   -6.8857   -5.4997    0.0000 C   0  0  0  0  0  0  0  0  0  0  0  0
   -0.2888    0.8036    0.0000 N   0  0  0  0  0  0  0  0  0  0  0  0
    0.8331   -0.1921    0.0000 C   0  0  0  0  0  0  0  0  0  0  0  0
    0.5318   -1.6615    0.0000 O   0  0  0  0  0  0  0  0  0  0  0  0
    2.2563    0.2817    0.0000 O   0  0  0  0  0  0  0  0  0  0  0  0
    3.3782   -0.7140    0.0000 C   0  0  0  0  0  0  0  0  0  0  0  0
    4.8015   -0.2403    0.0000 C   0  0  0  0  0  0  0  0  0  0  0  0
    6.0213   -1.1132    0.0000 C   0  0  0  0  0  0  0  0  0  0  0  0
    6.1888   -2.6038    0.0000 C   0  0  0  0  0  0  0  0  0  0  0  0
    7.5634   -3.2041    0.0000 C   0  0  0  0  0  0  0  0  0  0  0  0
    8.7706   -2.3137    0.0000 C   0  0  0  0  0  0  0  0  0  0  0  0
    8.6031   -0.8231    0.0000 C   0  0  0  0  0  0  0  0  0  0  0  0
    7.2284   -0.2229    0.0000 C   0  0  0  0  0  0  0  0  0  0  0  0
    6.7547    1.2004    0.0000 C   0  0  0  0  0  0  0  0  0  0  0  0
    7.4954    2.5047    0.0000 C   0  0  0  0  0  0  0  0  0  0  0  0
    6.7361    3.7984    0.0000 C   0  0  0  0  0  0  0  0  0  0  0  0
    5.2361    3.7876    0.0000 C   0  0  0  0  0  0  0  0  0  0  0  0
    4.4954    2.4832    0.0000 C   0  0  0  0  0  0  0  0  0  0  0  0
    5.2547    1.1896    0.0000 C   0  0  0  0  0  0  0  0  0  0  0  0
  1  2  1  0
  2  3  1  0
  2  4  1  0
  2  5  1  0
  5  6  1  0
  6  7  2  0
  6  8  1  0
  8  9  1  0
 10  9  1  1
 10 11  1  0
 11 12  1  0
 12 13  1  0
 13 14  1  0
 14 15  2  0
 14 16  1  0
 16 17  1  0
 10 18  1  0
 18 19  1  0
 19 20  2  0
 19 21  1  0
 21 22  1  0
 22 23  1  0
 23 24  1  0
 24 25  2  0
 25 26  1  0
 26 27  2  0
 27 28  1  0
 28 29  2  0
 29 30  1  0
 30 31  2  0
 31 32  1  0
 32 33  2  0
 33 34  1  0
 34 35  2  0
 35 23  1  0
 29 24  1  0
 35 30  1  0
M  END
