
     RDKit          2D

 42 44  0  0  0  0  0  0  0  0999 V2000
   -7.8919    2.1219    0.0000 C   0  0  0  0  0  0  0  0  0  0  0  0
   -6.8334    3.1846    0.0000 C   0  0  0  0  0  0  0  0  0  0  0  0
   -5.7748    4.2473    0.0000 C   0  0  0  0  0  0  0  0  0  0  0  0
   -7.8961    4.2432    0.0000 C   0  0  0  0  0  0  0  0  0  0  0  0
   -5.7706    2.1260    0.0000 O   0  0  0  0  0  0  0  0  0  0  0  0
   -4.3225    2.5171    0.0000 C   0  0  0  0  0  0  0  0  0  0  0  0
   -3.9371    3.9667    0.0000 O   0  0  0  0  0  0  0  0  0  0  0  0
   -3.2598    1.4585    0.0000 C   0  0  0  0  0  0  0  0  0  0  0  0
   -1.8116    1.8495    0.0000 C   0  0  0  0  0  0  0  0  0  0  0  0
   -0.7489    0.7909    0.0000 C   0  0  0  0  0  0  0  0  0  0  0  0
   -1.1343   -0.6587    0.0000 C   0  0  0  0  0  0  0  0  0  0  0  0
   -2.5825   -1.0498    0.0000 N   0  0  0  0  0  0  0  0  0  0  0  0
   -3.6452    0.0088    0.0000 C   0  0  0  0  0  0  0  0  0  0  0  0
   -5.0933   -0.3822    0.0000 C   0  0  0  0  0  0  0  0  0  0  0  0
   -5.4787   -1.8319    0.0000 O   0  0  0  0  0  0  0  0  0  0  0  0
   -6.1560    0.6764    0.0000 O   0  0  0  0  0  0  0  0  0  0  0  0
   -7.6042    0.2853    0.0000 C   0  0  0  0  0  0  0  0  0  0  0  0
   -2.9679   -2.4994    0.0000 C   0  0  0  0  0  0  0  0  0  0  0  0
   -1.9051   -3.5580    0.0000 O   0  0  0  0  0  0  0  0  0  0  0  0
   -4.4160   -2.8905    0.0000 O   0  0  0  0  0  0  0  0  0  0  0  0
   -4.8014   -4.3401    0.0000 C   0  0  0  0  0  0  0  0  0  0  0  0
   -6.2510   -3.9547    0.0000 C   0  0  0  0  0  0  0  0  0  0  0  0
   -3.3517   -4.7255    0.0000 C   0  0  0  0  0  0  0  0  0  0  0  0
   -5.1868   -5.7898    0.0000 C   0  0  0  0  0  0  0  0  0  0  0  0
    0.6992    1.1820    0.0000 N   0  0  0  0  0  0  0  0  0  0  0  0
    1.7619    0.1234    0.0000 C   0  0  0  0  0  0  0  0  0  0  0  0
    1.3765   -1.3263    0.0000 O   0  0  0  0  0  0  0  0  0  0  0  0
    3.2101    0.5144    0.0000 O   0  0  0  0  0  0  0  0  0  0  0  0
    4.2728   -0.5442    0.0000 C   0  0  0  0  0  0  0  0  0  0  0  0
    5.7209   -0.1531    0.0000 C   0  0  0  0  0  0  0  0  0  0  0  0
    6.8885   -1.0948    0.0000 C   0  0  0  0  0  0  0  0  0  0  0  0
    6.9699   -2.5926    0.0000 C   0  0  0  0  0  0  0  0  0  0  0  0
    8.3077   -3.2710    0.0000 C   0  0  0  0  0  0  0  0  0  0  0  0
    9.5641   -2.4516    0.0000 C   0  0  0  0  0  0  0  0  0  0  0  0
    9.4827   -0.9538    0.0000 C   0  0  0  0  0  0  0  0  0  0  0  0
    8.1449   -0.2754    0.0000 C   0  0  0  0  0  0  0  0  0  0  0  0
    7.7538    1.1727    0.0000 C   0  0  0  0  0  0  0  0  0  0  0  0
    8.5683    2.4323    0.0000 C   0  0  0  0  0  0  0  0  0  0  0  0
    7.8848    3.7675    0.0000 C   0  0  0  0  0  0  0  0  0  0  0  0
    6.3867    3.8431    0.0000 C   0  0  0  0  0  0  0  0  0  0  0  0
    5.5722    2.5835    0.0000 C   0  0  0  0  0  0  0  0  0  0  0  0
    6.2557    1.2483    0.0000 C   0  0  0  0  0  0  0  0  0  0  0  0
  1  2  1  0
  2  3  1  0
  2  4  1  0
  2  5  1  0
  5  6  1  0
  6  7  2  0
  6  8  1  0
  8  9  1  0
 10  9  1  6
 10 11  1  0
 11 12  1  0
 12 13  1  0
 13 14  1  0
 14 15  2  0
 14 16  1  0
 16 17  1  0
 12 18  1  0
 18 19  2  0
 18 20  1  0
 20 21  1  0
 21 22  1  0
 21 23  1  0
 21 24  1  0
 10 25  1  0
 25 26  1  0
 26 27  2  0
 26 28  1  0
 28 29  1  0
 29 30  1  0
 30 31  1  0
 31 32  2  0
 32 33  1  0
 33 34  2  0
 34 35  1  0
 35 36  2  0
 36 37  1  0
 37 38  2  0
 38 39  1  0
 39 40  2  0
 40 41  1  0
 41 42  2  0
 42 30  1  0
 36 31  1  0
 42 37  1  0
M  END
