
     RDKit          2D

 41 43  0  0  0  0  0  0  0  0999 V2000
   -8.0728    2.1461    0.0000 C   0  0  0  0  0  0  0  0  0  0  0  0
   -7.0120    3.2066    0.0000 C   0  0  0  0  0  0  0  0  0  0  0  0
   -5.9511    4.2670    0.0000 C   0  0  0  0  0  0  0  0  0  0  0  0
   -8.0724    4.2674    0.0000 C   0  0  0  0  0  0  0  0  0  0  0  0
   -5.9515    2.1457    0.0000 O   0  0  0  0  0  0  0  0  0  0  0  0
   -4.5026    2.5337    0.0000 C   0  0  0  0  0  0  0  0  0  0  0  0
   -4.1140    3.9825    0.0000 O   0  0  0  0  0  0  0  0  0  0  0  0
   -3.4421    1.4728    0.0000 C   0  0  0  0  0  0  0  0  0  0  0  0
   -1.9931    1.8607    0.0000 C   0  0  0  0  0  0  0  0  0  0  0  0
   -0.9327    0.7999    0.0000 C   0  0  0  0  0  0  0  0  0  0  0  0
   -1.3212   -0.6489    0.0000 C   0  0  0  0  0  0  0  0  0  0  0  0
   -2.7701   -1.0369    0.0000 N   0  0  0  0  0  0  0  0  0  0  0  0
   -3.8306    0.0240    0.0000 C   0  0  0  0  0  0  0  0  0  0  0  0
   -5.2796   -0.3640    0.0000 C   0  0  0  0  0  0  0  0  0  0  0  0
   -5.6681   -1.8128    0.0000 O   0  0  0  0  0  0  0  0  0  0  0  0
   -6.3400    0.6969    0.0000 O   0  0  0  0  0  0  0  0  0  0  0  0
   -3.1587   -2.4857    0.0000 C   0  0  0  0  0  0  0  0  0  0  0  0
   -2.0982   -3.5466    0.0000 O   0  0  0  0  0  0  0  0  0  0  0  0
   -4.6076   -2.8737    0.0000 O   0  0  0  0  0  0  0  0  0  0  0  0
   -4.9961   -4.3225    0.0000 C   0  0  0  0  0  0  0  0  0  0  0  0
   -6.4449   -3.9340    0.0000 C   0  0  0  0  0  0  0  0  0  0  0  0
   -3.5473   -4.7110    0.0000 C   0  0  0  0  0  0  0  0  0  0  0  0
   -5.3846   -5.7713    0.0000 C   0  0  0  0  0  0  0  0  0  0  0  0
    0.5163    1.1878    0.0000 N   0  0  0  0  0  0  0  0  0  0  0  0
    1.5767    0.1270    0.0000 C   0  0  0  0  0  0  0  0  0  0  0  0
    1.1882   -1.3218    0.0000 O   0  0  0  0  0  0  0  0  0  0  0  0
    3.0257    0.5149    0.0000 O   0  0  0  0  0  0  0  0  0  0  0  0
    4.0862   -0.5459    0.0000 C   0  0  0  0  0  0  0  0  0  0  0  0
    5.5351   -0.1580    0.0000 C   0  0  0  0  0  0  0  0  0  0  0  0
    6.7007   -1.1022    0.0000 C   0  0  0  0  0  0  0  0  0  0  0  0
    6.7789   -2.6002    0.0000 C   0  0  0  0  0  0  0  0  0  0  0  0
    8.1153   -3.2814    0.0000 C   0  0  0  0  0  0  0  0  0  0  0  0
    9.3734   -2.4647    0.0000 C   0  0  0  0  0  0  0  0  0  0  0  0
    9.2952   -0.9667    0.0000 C   0  0  0  0  0  0  0  0  0  0  0  0
    7.9588   -0.2855    0.0000 C   0  0  0  0  0  0  0  0  0  0  0  0
    7.5709    1.1635    0.0000 C   0  0  0  0  0  0  0  0  0  0  0  0
    8.3881    2.4213    0.0000 C   0  0  0  0  0  0  0  0  0  0  0  0
    7.7073    3.7580    0.0000 C   0  0  0  0  0  0  0  0  0  0  0  0
    6.2094    3.8368    0.0000 C   0  0  0  0  0  0  0  0  0  0  0  0
    5.3922    2.5789    0.0000 C   0  0  0  0  0  0  0  0  0  0  0  0
    6.0729    1.2423    0.0000 C   0  0  0  0  0  0  0  0  0  0  0  0
  1  2  1  0
  2  3  1  0
  2  4  1  0
  2  5  1  0
  5  6  1  0
  6  7  2  0
  6  8  1  0
  8  9  1  0
 10  9  1  6
 10 11  1  0
 11 12  1  0
 12 13  1  0
 13 14  1  0
 14 15  2  0
 14 16  1  0
 12 17  1  0
 17 18  2  0
 17 19  1  0
 19 20  1  0
 20 21  1  0
 20 22  1  0
 20 23  1  0
 10 24  1  0
 24 25  1  0
 25 26  2  0
 25 27  1  0
 27 28  1  0
 28 29  1  0
 29 30  1  0
 30 31  2  0
 31 32  1  0
 32 33  2  0
 33 34  1  0
 34 35  2  0
 35 36  1  0
 36 37  2  0
 37 38  1  0
 38 39  2  0
 39 40  1  0
 40 41  2  0
 41 29  1  0
 35 30  1  0
 41 36  1  0
M  END
