
     RDKit          2D

 12 13  0  0  0  0  0  0  0  0999 V2000
   -1.5265   -2.3044    0.0000 O   0  0  0  0  0  0  0  0  0  0  0  0
   -1.1316   -0.8573    0.0000 C   0  0  0  0  0  0  0  0  0  0  0  0
    0.3190   -0.4758    0.0000 C   0  0  0  0  0  0  0  0  0  0  0  0
    1.3748   -1.5413    0.0000 C   0  0  0  0  0  0  0  0  0  0  0  0
    2.8255   -1.1597    0.0000 C   0  0  0  0  0  0  0  0  0  0  0  0
    3.2203    0.2874    0.0000 C   0  0  0  0  0  0  0  0  0  0  0  0
    2.1645    1.3529    0.0000 C   0  0  0  0  0  0  0  0  0  0  0  0
    0.7139    0.9713    0.0000 C   0  0  0  0  0  0  0  0  0  0  0  0
   -0.3419    2.0368    0.0000 N   0  0  0  0  0  0  0  0  0  0  0  0
   -1.7926    1.6553    0.0000 N   0  0  0  0  0  0  0  0  0  0  0  0
   -2.1874    0.2082    0.0000 N   0  0  0  0  0  0  0  0  0  0  0  0
   -3.6381   -0.1734    0.0000 O   0  0  0  0  0  0  0  0  0  0  0  0
  1  2  2  0
  2  3  1  0
  3  4  2  0
  4  5  1  0
  5  6  2  0
  6  7  1  0
  7  8  2  0
  8  9  1  0
  9 10  2  0
 10 11  1  0
 11 12  1  0
 11  2  1  0
  8  3  1  0
M  END
