
     RDKit          2D

 28 30  0  0  0  0  0  0  0  0999 V2000
   -8.3086   -0.3478    0.0000 C   0  0  0  0  0  0  0  0  0  0  0  0
   -7.4186    0.8595    0.0000 C   0  0  0  0  0  0  0  0  0  0  0  0
   -6.5285    2.0669    0.0000 C   0  0  0  0  0  0  0  0  0  0  0  0
   -8.6259    1.7496    0.0000 C   0  0  0  0  0  0  0  0  0  0  0  0
   -6.2112   -0.0305    0.0000 O   0  0  0  0  0  0  0  0  0  0  0  0
   -4.8367    0.5700    0.0000 C   0  0  0  0  0  0  0  0  0  0  0  0
   -3.6293   -0.3200    0.0000 C   0  0  0  0  0  0  0  0  0  0  0  0
   -3.7964   -1.8107    0.0000 C   0  0  0  0  0  0  0  0  0  0  0  0
   -2.5890   -2.7008    0.0000 O   0  0  0  0  0  0  0  0  0  0  0  0
   -5.1709   -2.4113    0.0000 O   0  0  0  0  0  0  0  0  0  0  0  0
   -2.2548    0.2805    0.0000 N   0  0  0  0  0  0  0  0  0  0  0  0
   -1.0474   -0.6095    0.0000 C   0  0  0  0  0  0  0  0  0  0  0  0
   -1.2145   -2.1002    0.0000 O   0  0  0  0  0  0  0  0  0  0  0  0
    0.3271   -0.0089    0.0000 O   0  0  0  0  0  0  0  0  0  0  0  0
    1.5345   -0.8990    0.0000 C   0  0  0  0  0  0  0  0  0  0  0  0
    2.9090   -0.2984    0.0000 C   0  0  0  0  0  0  0  0  0  0  0  0
    4.2028   -1.0574    0.0000 C   0  0  0  0  0  0  0  0  0  0  0  0
    4.5045   -2.5268    0.0000 C   0  0  0  0  0  0  0  0  0  0  0  0
    5.9279   -3.0002    0.0000 C   0  0  0  0  0  0  0  0  0  0  0  0
    7.0495   -2.0043    0.0000 C   0  0  0  0  0  0  0  0  0  0  0  0
    6.7478   -0.5349    0.0000 C   0  0  0  0  0  0  0  0  0  0  0  0
    5.3245   -0.0615    0.0000 C   0  0  0  0  0  0  0  0  0  0  0  0
    4.7239    1.3130    0.0000 C   0  0  0  0  0  0  0  0  0  0  0  0
    5.3435    2.6791    0.0000 C   0  0  0  0  0  0  0  0  0  0  0  0
    4.4703    3.8987    0.0000 C   0  0  0  0  0  0  0  0  0  0  0  0
    2.9774    3.7522    0.0000 C   0  0  0  0  0  0  0  0  0  0  0  0
    2.3578    2.3862    0.0000 C   0  0  0  0  0  0  0  0  0  0  0  0
    3.2311    1.1666    0.0000 C   0  0  0  0  0  0  0  0  0  0  0  0
  1  2  1  0
  2  3  1  0
  2  4  1  0
  2  5  1  0
  5  6  1  0
  7  6  1  6
  7  8  1  0
  8  9  2  0
  8 10  1  0
  7 11  1  0
 11 12  1  0
 12 13  2  0
 12 14  1  0
 14 15  1  0
 15 16  1  0
 16 17  1  0
 17 18  2  0
 18 19  1  0
 19 20  2  0
 20 21  1  0
 21 22  2  0
 22 23  1  0
 23 24  2  0
 24 25  1  0
 25 26  2  0
 26 27  1  0
 27 28  2  0
 28 16  1  0
 22 17  1  0
 28 23  1  0
M  END
