
     RDKit          2D

 27 29  0  0  0  0  0  0  0  0999 V2000
   -7.8286   -0.9140    0.0000 C   0  0  0  0  0  0  0  0  0  0  0  0
   -6.4421   -1.4865    0.0000 C   0  0  0  0  0  0  0  0  0  0  0  0
   -5.0556   -2.0590    0.0000 C   0  0  0  0  0  0  0  0  0  0  0  0
   -7.0146   -2.8730    0.0000 C   0  0  0  0  0  0  0  0  0  0  0  0
   -5.8696   -0.1000    0.0000 O   0  0  0  0  0  0  0  0  0  0  0  0
   -4.3827    0.0974    0.0000 C   0  0  0  0  0  0  0  0  0  0  0  0
   -3.8103    1.4839    0.0000 C   0  0  0  0  0  0  0  0  0  0  0  0
   -4.7247    2.6729    0.0000 C   0  0  0  0  0  0  0  0  0  0  0  0
   -6.2117    2.4754    0.0000 O   0  0  0  0  0  0  0  0  0  0  0  0
   -2.3233    1.6814    0.0000 N   0  0  0  0  0  0  0  0  0  0  0  0
   -1.4088    0.4924    0.0000 C   0  0  0  0  0  0  0  0  0  0  0  0
   -1.9813   -0.8941    0.0000 O   0  0  0  0  0  0  0  0  0  0  0  0
    0.0781    0.6899    0.0000 O   0  0  0  0  0  0  0  0  0  0  0  0
    0.9926   -0.4991    0.0000 C   0  0  0  0  0  0  0  0  0  0  0  0
    2.4796   -0.3017    0.0000 C   0  0  0  0  0  0  0  0  0  0  0  0
    3.5133   -1.3885    0.0000 C   0  0  0  0  0  0  0  0  0  0  0  0
    3.3973   -2.8841    0.0000 C   0  0  0  0  0  0  0  0  0  0  0  0
    4.6345   -3.7323    0.0000 C   0  0  0  0  0  0  0  0  0  0  0  0
    5.9876   -3.0850    0.0000 C   0  0  0  0  0  0  0  0  0  0  0  0
    6.1036   -1.5895    0.0000 C   0  0  0  0  0  0  0  0  0  0  0  0
    4.8665   -0.7412    0.0000 C   0  0  0  0  0  0  0  0  0  0  0  0
    4.6690    0.7457    0.0000 C   0  0  0  0  0  0  0  0  0  0  0  0
    5.6419    1.8874    0.0000 C   0  0  0  0  0  0  0  0  0  0  0  0
    5.1396    3.3008    0.0000 C   0  0  0  0  0  0  0  0  0  0  0  0
    3.6644    3.5725    0.0000 C   0  0  0  0  0  0  0  0  0  0  0  0
    2.6915    2.4308    0.0000 C   0  0  0  0  0  0  0  0  0  0  0  0
    3.1938    1.0174    0.0000 C   0  0  0  0  0  0  0  0  0  0  0  0
  1  2  1  0
  2  3  1  0
  2  4  1  0
  2  5  1  0
  5  6  1  0
  7  6  1  1
  7  8  1  0
  8  9  1  0
  7 10  1  0
 10 11  1  0
 11 12  2  0
 11 13  1  0
 13 14  1  0
 14 15  1  0
 15 16  1  0
 16 17  2  0
 17 18  1  0
 18 19  2  0
 19 20  1  0
 20 21  2  0
 21 22  1  0
 22 23  2  0
 23 24  1  0
 24 25  2  0
 25 26  1  0
 26 27  2  0
 27 15  1  0
 21 16  1  0
 27 22  1  0
M  END
