
     RDKit          2D

 27 29  0  0  0  0  0  0  0  0999 V2000
   -8.3983   -0.5531    0.0000 C   0  0  0  0  0  0  0  0  0  0  0  0
   -7.5234    0.6653    0.0000 C   0  0  0  0  0  0  0  0  0  0  0  0
   -6.6485    1.8838    0.0000 C   0  0  0  0  0  0  0  0  0  0  0  0
   -8.7418    1.5402    0.0000 C   0  0  0  0  0  0  0  0  0  0  0  0
   -6.3049   -0.2096    0.0000 O   0  0  0  0  0  0  0  0  0  0  0  0
   -4.9380    0.4082    0.0000 C   0  0  0  0  0  0  0  0  0  0  0  0
   -3.7196   -0.4667    0.0000 C   0  0  0  0  0  0  0  0  0  0  0  0
   -3.8681   -1.9593    0.0000 C   0  0  0  0  0  0  0  0  0  0  0  0
   -5.2350   -2.5771    0.0000 O   0  0  0  0  0  0  0  0  0  0  0  0
   -2.3527    0.1511    0.0000 N   0  0  0  0  0  0  0  0  0  0  0  0
   -1.1343   -0.7238    0.0000 C   0  0  0  0  0  0  0  0  0  0  0  0
   -1.2828   -2.2165    0.0000 O   0  0  0  0  0  0  0  0  0  0  0  0
    0.2326   -0.1061    0.0000 O   0  0  0  0  0  0  0  0  0  0  0  0
    1.4510   -0.9810    0.0000 C   0  0  0  0  0  0  0  0  0  0  0  0
    2.8179   -0.3632    0.0000 C   0  0  0  0  0  0  0  0  0  0  0  0
    4.1211   -1.1059    0.0000 C   0  0  0  0  0  0  0  0  0  0  0  0
    4.4412   -2.5714    0.0000 C   0  0  0  0  0  0  0  0  0  0  0  0
    5.8703   -3.0269    0.0000 C   0  0  0  0  0  0  0  0  0  0  0  0
    6.9794   -2.0170    0.0000 C   0  0  0  0  0  0  0  0  0  0  0  0
    6.6594   -0.5516    0.0000 C   0  0  0  0  0  0  0  0  0  0  0  0
    5.2302   -0.0960    0.0000 C   0  0  0  0  0  0  0  0  0  0  0  0
    4.6125    1.2709    0.0000 C   0  0  0  0  0  0  0  0  0  0  0  0
    5.2149    2.6446    0.0000 C   0  0  0  0  0  0  0  0  0  0  0  0
    4.3265    3.8531    0.0000 C   0  0  0  0  0  0  0  0  0  0  0  0
    2.8356    3.6880    0.0000 C   0  0  0  0  0  0  0  0  0  0  0  0
    2.2331    2.3143    0.0000 C   0  0  0  0  0  0  0  0  0  0  0  0
    3.1216    1.1057    0.0000 C   0  0  0  0  0  0  0  0  0  0  0  0
  1  2  1  0
  2  3  1  0
  2  4  1  0
  2  5  1  0
  5  6  1  0
  7  6  1  1
  7  8  1  0
  8  9  2  0
  7 10  1  0
 10 11  1  0
 11 12  2  0
 11 13  1  0
 13 14  1  0
 14 15  1  0
 15 16  1  0
 16 17  2  0
 17 18  1  0
 18 19  2  0
 19 20  1  0
 20 21  2  0
 21 22  1  0
 22 23  2  0
 23 24  1  0
 24 25  2  0
 25 26  1  0
 26 27  2  0
 27 15  1  0
 21 16  1  0
 27 22  1  0
M  END
