
     RDKit          2D

 32 34  0  0  0  0  0  0  0  0999 V2000
   -6.0435   -2.5973    0.0000 C   0  0  0  0  0  0  0  0  0  0  0  0
   -4.5776   -2.9153    0.0000 C   0  0  0  0  0  0  0  0  0  0  0  0
   -3.1117   -3.2334    0.0000 C   0  0  0  0  0  0  0  0  0  0  0  0
   -4.8956   -4.3812    0.0000 C   0  0  0  0  0  0  0  0  0  0  0  0
   -4.2595   -1.4494    0.0000 O   0  0  0  0  0  0  0  0  0  0  0  0
   -2.8310   -0.9919    0.0000 C   0  0  0  0  0  0  0  0  0  0  0  0
   -2.5130    0.4740    0.0000 C   0  0  0  0  0  0  0  0  0  0  0  0
   -3.6234    1.4824    0.0000 C   0  0  0  0  0  0  0  0  0  0  0  0
   -5.0520    1.0249    0.0000 N   0  0  0  0  0  0  0  0  0  0  0  0
   -6.1624    2.0332    0.0000 C   0  0  0  0  0  0  0  0  0  0  0  0
   -7.5910    1.5757    0.0000 C   0  0  0  0  0  0  0  0  0  0  0  0
   -7.9090    0.1098    0.0000 O   0  0  0  0  0  0  0  0  0  0  0  0
   -8.7014    2.5841    0.0000 O   0  0  0  0  0  0  0  0  0  0  0  0
  -10.1300    2.1266    0.0000 C   0  0  0  0  0  0  0  0  0  0  0  0
   -1.0844    0.9315    0.0000 N   0  0  0  0  0  0  0  0  0  0  0  0
    0.0261   -0.0769    0.0000 C   0  0  0  0  0  0  0  0  0  0  0  0
   -0.2920   -1.5428    0.0000 O   0  0  0  0  0  0  0  0  0  0  0  0
    1.4546    0.3806    0.0000 O   0  0  0  0  0  0  0  0  0  0  0  0
    2.5651   -0.6278    0.0000 C   0  0  0  0  0  0  0  0  0  0  0  0
    3.9936   -0.1703    0.0000 C   0  0  0  0  0  0  0  0  0  0  0  0
    5.2034   -1.0571    0.0000 C   0  0  0  0  0  0  0  0  0  0  0  0
    5.3539   -2.5495    0.0000 C   0  0  0  0  0  0  0  0  0  0  0  0
    6.7216   -3.1654    0.0000 C   0  0  0  0  0  0  0  0  0  0  0  0
    7.9388   -2.2888    0.0000 C   0  0  0  0  0  0  0  0  0  0  0  0
    7.7883   -0.7964    0.0000 C   0  0  0  0  0  0  0  0  0  0  0  0
    6.4206   -0.1805    0.0000 C   0  0  0  0  0  0  0  0  0  0  0  0
    5.9631    1.2480    0.0000 C   0  0  0  0  0  0  0  0  0  0  0  0
    6.7186    2.5439    0.0000 C   0  0  0  0  0  0  0  0  0  0  0  0
    5.9741    3.8461    0.0000 C   0  0  0  0  0  0  0  0  0  0  0  0
    4.4741    3.8524    0.0000 C   0  0  0  0  0  0  0  0  0  0  0  0
    3.7186    2.5565    0.0000 C   0  0  0  0  0  0  0  0  0  0  0  0
    4.4631    1.2543    0.0000 C   0  0  0  0  0  0  0  0  0  0  0  0
  1  2  1  0
  2  3  1  0
  2  4  1  0
  2  5  1  0
  5  6  1  0
  7  6  1  6
  7  8  1  0
  8  9  1  0
  9 10  1  0
 10 11  1  0
 11 12  2  0
 11 13  1  0
 13 14  1  0
  7 15  1  0
 15 16  1  0
 16 17  2  0
 16 18  1  0
 18 19  1  0
 19 20  1  0
 20 21  1  0
 21 22  2  0
 22 23  1  0
 23 24  2  0
 24 25  1  0
 25 26  2  0
 26 27  1  0
 27 28  2  0
 28 29  1  0
 29 30  2  0
 30 31  1  0
 31 32  2  0
 32 20  1  0
 26 21  1  0
 32 27  1  0
M  END
