
     RDKit          2D

 39 41  0  0  0  0  0  0  0  0999 V2000
   -4.6843   -2.7890    0.0000 C   0  0  0  0  0  0  0  0  0  0  0  0
   -3.2120   -3.0761    0.0000 C   0  0  0  0  0  0  0  0  0  0  0  0
   -1.7398   -3.3632    0.0000 C   0  0  0  0  0  0  0  0  0  0  0  0
   -3.4992   -4.5484    0.0000 C   0  0  0  0  0  0  0  0  0  0  0  0
   -2.9249   -1.6038    0.0000 O   0  0  0  0  0  0  0  0  0  0  0  0
   -1.5063   -1.1164    0.0000 C   0  0  0  0  0  0  0  0  0  0  0  0
   -1.2192    0.3559    0.0000 C   0  0  0  0  0  0  0  0  0  0  0  0
   -2.3506    1.3407    0.0000 C   0  0  0  0  0  0  0  0  0  0  0  0
   -3.7692    0.8532    0.0000 N   0  0  0  0  0  0  0  0  0  0  0  0
   -4.0564   -0.6190    0.0000 C   0  0  0  0  0  0  0  0  0  0  0  0
   -5.4749   -1.1065    0.0000 C   0  0  0  0  0  0  0  0  0  0  0  0
   -6.6064   -0.1217    0.0000 O   0  0  0  0  0  0  0  0  0  0  0  0
   -5.7621   -2.5788    0.0000 O   0  0  0  0  0  0  0  0  0  0  0  0
   -7.1806   -3.0662    0.0000 C   0  0  0  0  0  0  0  0  0  0  0  0
   -4.9007    1.8380    0.0000 C   0  0  0  0  0  0  0  0  0  0  0  0
   -4.6135    3.3103    0.0000 O   0  0  0  0  0  0  0  0  0  0  0  0
   -6.3193    1.3505    0.0000 O   0  0  0  0  0  0  0  0  0  0  0  0
   -7.4507    2.3353    0.0000 C   0  0  0  0  0  0  0  0  0  0  0  0
   -8.4355    1.2039    0.0000 C   0  0  0  0  0  0  0  0  0  0  0  0
   -6.4659    3.4668    0.0000 C   0  0  0  0  0  0  0  0  0  0  0  0
   -8.5822    3.3201    0.0000 C   0  0  0  0  0  0  0  0  0  0  0  0
    0.1994    0.8434    0.0000 N   0  0  0  0  0  0  0  0  0  0  0  0
    1.3308   -0.1414    0.0000 C   0  0  0  0  0  0  0  0  0  0  0  0
    1.0437   -1.6137    0.0000 O   0  0  0  0  0  0  0  0  0  0  0  0
    2.7494    0.3460    0.0000 O   0  0  0  0  0  0  0  0  0  0  0  0
    3.8809   -0.6387    0.0000 C   0  0  0  0  0  0  0  0  0  0  0  0
    5.2995   -0.1513    0.0000 C   0  0  0  0  0  0  0  0  0  0  0  0
    6.5277   -1.0124    0.0000 C   0  0  0  0  0  0  0  0  0  0  0  0
    6.7095   -2.5013    0.0000 C   0  0  0  0  0  0  0  0  0  0  0  0
    8.0899   -3.0883    0.0000 C   0  0  0  0  0  0  0  0  0  0  0  0
    9.2884   -2.1863    0.0000 C   0  0  0  0  0  0  0  0  0  0  0  0
    9.1066   -0.6974    0.0000 C   0  0  0  0  0  0  0  0  0  0  0  0
    7.7262   -0.1104    0.0000 C   0  0  0  0  0  0  0  0  0  0  0  0
    7.2387    1.3082    0.0000 C   0  0  0  0  0  0  0  0  0  0  0  0
    7.9667    2.6196    0.0000 C   0  0  0  0  0  0  0  0  0  0  0  0
    7.1950    3.9059    0.0000 C   0  0  0  0  0  0  0  0  0  0  0  0
    5.6952    3.8806    0.0000 C   0  0  0  0  0  0  0  0  0  0  0  0
    4.9672    2.5691    0.0000 C   0  0  0  0  0  0  0  0  0  0  0  0
    5.7389    1.2829    0.0000 C   0  0  0  0  0  0  0  0  0  0  0  0
  1  2  1  0
  2  3  1  0
  2  4  1  0
  2  5  1  0
  5  6  1  0
  7  6  1  1
  7  8  1  0
  8  9  1  0
  9 10  1  0
 10 11  1  0
 11 12  2  0
 11 13  1  0
 13 14  1  0
  9 15  1  0
 15 16  2  0
 15 17  1  0
 17 18  1  0
 18 19  1  0
 18 20  1  0
 18 21  1  0
  7 22  1  0
 22 23  1  0
 23 24  2  0
 23 25  1  0
 25 26  1  0
 26 27  1  0
 27 28  1  0
 28 29  2  0
 29 30  1  0
 30 31  2  0
 31 32  1  0
 32 33  2  0
 33 34  1  0
 34 35  2  0
 35 36  1  0
 36 37  2  0
 37 38  1  0
 38 39  2  0
 39 27  1  0
 33 28  1  0
 39 34  1  0
M  END
