
     RDKit          2D

 38 40  0  0  0  0  0  0  0  0999 V2000
   -4.8097   -2.9749    0.0000 C   0  0  0  0  0  0  0  0  0  0  0  0
   -3.3316   -3.2299    0.0000 C   0  0  0  0  0  0  0  0  0  0  0  0
   -1.8534   -3.4850    0.0000 C   0  0  0  0  0  0  0  0  0  0  0  0
   -3.5867   -4.7081    0.0000 C   0  0  0  0  0  0  0  0  0  0  0  0
   -3.0765   -1.7518    0.0000 O   0  0  0  0  0  0  0  0  0  0  0  0
   -1.6689   -1.2336    0.0000 C   0  0  0  0  0  0  0  0  0  0  0  0
   -1.4138    0.2445    0.0000 C   0  0  0  0  0  0  0  0  0  0  0  0
   -2.5664    1.2045    0.0000 C   0  0  0  0  0  0  0  0  0  0  0  0
   -3.9740    0.6863    0.0000 N   0  0  0  0  0  0  0  0  0  0  0  0
   -4.2291   -0.7918    0.0000 C   0  0  0  0  0  0  0  0  0  0  0  0
   -5.6368   -1.3100    0.0000 C   0  0  0  0  0  0  0  0  0  0  0  0
   -6.7893   -0.3500    0.0000 O   0  0  0  0  0  0  0  0  0  0  0  0
   -5.8918   -2.7882    0.0000 O   0  0  0  0  0  0  0  0  0  0  0  0
   -5.1266    1.6463    0.0000 C   0  0  0  0  0  0  0  0  0  0  0  0
   -4.8716    3.1245    0.0000 O   0  0  0  0  0  0  0  0  0  0  0  0
   -6.5343    1.1281    0.0000 O   0  0  0  0  0  0  0  0  0  0  0  0
   -7.6869    2.0881    0.0000 C   0  0  0  0  0  0  0  0  0  0  0  0
   -8.6468    0.9355    0.0000 C   0  0  0  0  0  0  0  0  0  0  0  0
   -6.7269    3.2407    0.0000 C   0  0  0  0  0  0  0  0  0  0  0  0
   -8.8394    3.0481    0.0000 C   0  0  0  0  0  0  0  0  0  0  0  0
   -0.0061    0.7627    0.0000 N   0  0  0  0  0  0  0  0  0  0  0  0
    1.1464   -0.1973    0.0000 C   0  0  0  0  0  0  0  0  0  0  0  0
    0.8914   -1.6754    0.0000 O   0  0  0  0  0  0  0  0  0  0  0  0
    2.5541    0.3209    0.0000 O   0  0  0  0  0  0  0  0  0  0  0  0
    3.7067   -0.6390    0.0000 C   0  0  0  0  0  0  0  0  0  0  0  0
    5.1143   -0.1209    0.0000 C   0  0  0  0  0  0  0  0  0  0  0  0
    6.3609   -0.9551    0.0000 C   0  0  0  0  0  0  0  0  0  0  0  0
    6.5751   -2.4397    0.0000 C   0  0  0  0  0  0  0  0  0  0  0  0
    7.9680   -2.9965    0.0000 C   0  0  0  0  0  0  0  0  0  0  0  0
    9.1466   -2.0687    0.0000 C   0  0  0  0  0  0  0  0  0  0  0  0
    8.9324   -0.5841    0.0000 C   0  0  0  0  0  0  0  0  0  0  0  0
    7.5396   -0.0273    0.0000 C   0  0  0  0  0  0  0  0  0  0  0  0
    7.0214    1.3804    0.0000 C   0  0  0  0  0  0  0  0  0  0  0  0
    7.7208    2.7074    0.0000 C   0  0  0  0  0  0  0  0  0  0  0  0
    6.9212    3.9765    0.0000 C   0  0  0  0  0  0  0  0  0  0  0  0
    5.4223    3.9187    0.0000 C   0  0  0  0  0  0  0  0  0  0  0  0
    4.7230    2.5917    0.0000 C   0  0  0  0  0  0  0  0  0  0  0  0
    5.5225    1.3225    0.0000 C   0  0  0  0  0  0  0  0  0  0  0  0
  1  2  1  0
  2  3  1  0
  2  4  1  0
  2  5  1  0
  5  6  1  0
  7  6  1  6
  7  8  1  0
  8  9  1  0
  9 10  1  0
 10 11  1  0
 11 12  2  0
 11 13  1  0
  9 14  1  0
 14 15  2  0
 14 16  1  0
 16 17  1  0
 17 18  1  0
 17 19  1  0
 17 20  1  0
  7 21  1  0
 21 22  1  0
 22 23  2  0
 22 24  1  0
 24 25  1  0
 25 26  1  0
 26 27  1  0
 27 28  2  0
 28 29  1  0
 29 30  2  0
 30 31  1  0
 31 32  2  0
 32 33  1  0
 33 34  2  0
 34 35  1  0
 35 36  2  0
 36 37  1  0
 37 38  2  0
 38 26  1  0
 32 27  1  0
 38 33  1  0
M  END
