
     RDKit          2D

 62 67  0  0  0  0  0  0  0  0999 V2000
    7.6073  -13.0067    0.0000 C   0  0  0  0  0  0  0  0  0  0  0  0
    8.0496  -11.5734    0.0000 O   0  0  0  0  0  0  0  0  0  0  0  0
    7.0295  -10.4736    0.0000 C   0  0  0  0  0  0  0  0  0  0  0  0
    7.4719   -9.0403    0.0000 C   0  0  0  0  0  0  0  0  0  0  0  0
    6.4518   -7.9406    0.0000 O   0  0  0  0  0  0  0  0  0  0  0  0
    6.8942   -6.5073    0.0000 C   0  0  0  0  0  0  0  0  0  0  0  0
    5.8741   -5.4076    0.0000 C   0  0  0  0  0  0  0  0  0  0  0  0
    6.3164   -3.9743    0.0000 O   0  0  0  0  0  0  0  0  0  0  0  0
    5.2964   -2.8745    0.0000 C   0  0  0  0  0  0  0  0  0  0  0  0
    5.7387   -1.4413    0.0000 C   0  0  0  0  0  0  0  0  0  0  0  0
    4.7186   -0.3415    0.0000 C   0  0  0  0  0  0  0  0  0  0  0  0
    3.2562   -0.6751    0.0000 C   0  0  0  0  0  0  0  0  0  0  0  0
    2.8138   -2.1084    0.0000 N   0  0  0  0  0  0  0  0  0  0  0  0
    3.8339   -3.2081    0.0000 C   0  0  0  0  0  0  0  0  0  0  0  0
    3.3916   -4.6414    0.0000 C   0  0  0  0  0  0  0  0  0  0  0  0
    1.9291   -4.9749    0.0000 O   0  0  0  0  0  0  0  0  0  0  0  0
    4.4116   -5.7411    0.0000 O   0  0  0  0  0  0  0  0  0  0  0  0
    1.3514   -2.4419    0.0000 C   0  0  0  0  0  0  0  0  0  0  0  0
    0.9090   -3.8752    0.0000 O   0  0  0  0  0  0  0  0  0  0  0  0
    0.3313   -1.3422    0.0000 C   0  0  0  0  0  0  0  0  0  0  0  0
   -1.1311   -1.6757    0.0000 N   0  0  0  0  0  0  0  0  0  0  0  0
   -1.5735   -3.1090    0.0000 C   0  0  0  0  0  0  0  0  0  0  0  0
   -3.0359   -3.4426    0.0000 C   0  0  0  0  0  0  0  0  0  0  0  0
   -4.0560   -2.3428    0.0000 C   0  0  0  0  0  0  0  0  0  0  0  0
   -5.5185   -2.6764    0.0000 N   0  0  0  0  0  0  0  0  0  0  0  0
   -6.5386   -1.5767    0.0000 C   0  0  0  0  0  0  0  0  0  0  0  0
   -6.0962   -0.1434    0.0000 O   0  0  0  0  0  0  0  0  0  0  0  0
   -8.0010   -1.9102    0.0000 O   0  0  0  0  0  0  0  0  0  0  0  0
   -9.0211   -0.8105    0.0000 C   0  0  0  0  0  0  0  0  0  0  0  0
  -10.4835   -1.1440    0.0000 C   0  0  0  0  0  0  0  0  0  0  0  0
  -10.9259   -2.5773    0.0000 C   0  0  0  0  0  0  0  0  0  0  0  0
  -12.3883   -2.9109    0.0000 C   0  0  0  0  0  0  0  0  0  0  0  0
  -13.4084   -1.8111    0.0000 C   0  0  0  0  0  0  0  0  0  0  0  0
  -12.9661   -0.3778    0.0000 C   0  0  0  0  0  0  0  0  0  0  0  0
  -11.5036   -0.0443    0.0000 C   0  0  0  0  0  0  0  0  0  0  0  0
   -8.5787    0.6228    0.0000 C   0  0  0  0  0  0  0  0  0  0  0  0
   -9.5988    1.7226    0.0000 C   0  0  0  0  0  0  0  0  0  0  0  0
   -9.1565    3.1559    0.0000 C   0  0  0  0  0  0  0  0  0  0  0  0
   -7.6940    3.4894    0.0000 C   0  0  0  0  0  0  0  0  0  0  0  0
   -6.6739    2.3897    0.0000 C   0  0  0  0  0  0  0  0  0  0  0  0
   -7.1163    0.9564    0.0000 C   0  0  0  0  0  0  0  0  0  0  0  0
   -3.6137   -0.9095    0.0000 N   0  0  0  0  0  0  0  0  0  0  0  0
   -2.1512   -0.5760    0.0000 C   0  0  0  0  0  0  0  0  0  0  0  0
   -1.7089    0.8573    0.0000 O   0  0  0  0  0  0  0  0  0  0  0  0
    5.1610    1.0918    0.0000 N   0  0  0  0  0  0  0  0  0  0  0  0
    4.1409    2.1915    0.0000 C   0  0  0  0  0  0  0  0  0  0  0  0
    2.6785    1.8580    0.0000 O   0  0  0  0  0  0  0  0  0  0  0  0
    4.5833    3.6248    0.0000 O   0  0  0  0  0  0  0  0  0  0  0  0
    3.5632    4.7245    0.0000 C   0  0  0  0  0  0  0  0  0  0  0  0
    4.0055    6.1578    0.0000 C   0  0  0  0  0  0  0  0  0  0  0  0
    3.1060    7.3582    0.0000 C   0  0  0  0  0  0  0  0  0  0  0  0
    1.6120    7.4929    0.0000 C   0  0  0  0  0  0  0  0  0  0  0  0
    0.9817    8.8540    0.0000 C   0  0  0  0  0  0  0  0  0  0  0  0
    1.8453   10.0804    0.0000 C   0  0  0  0  0  0  0  0  0  0  0  0
    3.3393    9.9457    0.0000 C   0  0  0  0  0  0  0  0  0  0  0  0
    3.9696    8.5846    0.0000 C   0  0  0  0  0  0  0  0  0  0  0  0
    5.4029    8.1423    0.0000 C   0  0  0  0  0  0  0  0  0  0  0  0
    6.6907    8.9114    0.0000 C   0  0  0  0  0  0  0  0  0  0  0  0
    8.0007    8.1807    0.0000 C   0  0  0  0  0  0  0  0  0  0  0  0
    8.0229    6.6809    0.0000 C   0  0  0  0  0  0  0  0  0  0  0  0
    6.7351    5.9117    0.0000 C   0  0  0  0  0  0  0  0  0  0  0  0
    5.4251    6.6424    0.0000 C   0  0  0  0  0  0  0  0  0  0  0  0
  1  2  1  0
  2  3  1  0
  3  4  1  0
  4  5  1  0
  5  6  1  0
  6  7  1  0
  7  8  1  0
  8  9  1  0
  9 10  1  0
 11 10  1  1
 11 12  1  0
 12 13  1  0
 13 14  1  0
 14 15  1  0
 15 16  2  0
 15 17  1  0
 13 18  1  0
 18 19  2  0
 18 20  1  0
 20 21  1  0
 21 22  1  0
 22 23  2  0
 23 24  1  0
 24 25  1  0
 25 26  1  0
 26 27  2  0
 26 28  1  0
 28 29  1  0
 29 30  1  0
 30 31  2  0
 31 32  1  0
 32 33  2  0
 33 34  1  0
 34 35  2  0
 29 36  1  0
 36 37  2  0
 37 38  1  0
 38 39  2  0
 39 40  1  0
 40 41  2  0
 24 42  2  0
 42 43  1  0
 43 44  2  0
 11 45  1  0
 45 46  1  0
 46 47  2  0
 46 48  1  0
 48 49  1  0
 49 50  1  0
 50 51  1  0
 51 52  2  0
 52 53  1  0
 53 54  2  0
 54 55  1  0
 55 56  2  0
 56 57  1  0
 57 58  2  0
 58 59  1  0
 59 60  2  0
 60 61  1  0
 61 62  2  0
 43 21  1  0
 35 30  1  0
 41 36  1  0
 62 50  1  0
 56 51  1  0
 62 57  1  0
M  END
