
     RDKit          2D

 47 50  0  0  0  0  0  0  0  0999 V2000
  -12.9639    4.3687    0.0000 C   0  0  0  0  0  0  0  0  0  0  0  0
  -11.5347    4.8241    0.0000 O   0  0  0  0  0  0  0  0  0  0  0  0
  -10.4257    3.8141    0.0000 C   0  0  0  0  0  0  0  0  0  0  0  0
   -8.9965    4.2695    0.0000 C   0  0  0  0  0  0  0  0  0  0  0  0
   -7.8875    3.2594    0.0000 O   0  0  0  0  0  0  0  0  0  0  0  0
   -6.4583    3.7148    0.0000 C   0  0  0  0  0  0  0  0  0  0  0  0
   -5.3493    2.7048    0.0000 C   0  0  0  0  0  0  0  0  0  0  0  0
   -3.9201    3.1602    0.0000 O   0  0  0  0  0  0  0  0  0  0  0  0
   -2.8111    2.1502    0.0000 C   0  0  0  0  0  0  0  0  0  0  0  0
   -1.3819    2.6055    0.0000 C   0  0  0  0  0  0  0  0  0  0  0  0
   -0.2729    1.5955    0.0000 C   0  0  0  0  0  0  0  0  0  0  0  0
   -0.5932    0.1301    0.0000 C   0  0  0  0  0  0  0  0  0  0  0  0
   -2.0224   -0.3253    0.0000 N   0  0  0  0  0  0  0  0  0  0  0  0
   -3.1313    0.6847    0.0000 C   0  0  0  0  0  0  0  0  0  0  0  0
   -4.5606    0.2293    0.0000 C   0  0  0  0  0  0  0  0  0  0  0  0
   -4.8808   -1.2361    0.0000 O   0  0  0  0  0  0  0  0  0  0  0  0
   -5.6695    1.2394    0.0000 O   0  0  0  0  0  0  0  0  0  0  0  0
   -2.3426   -1.7907    0.0000 C   0  0  0  0  0  0  0  0  0  0  0  0
   -3.7718   -2.2461    0.0000 O   0  0  0  0  0  0  0  0  0  0  0  0
   -1.2336   -2.8008    0.0000 C   0  0  0  0  0  0  0  0  0  0  0  0
   -1.5538   -4.2662    0.0000 N   0  0  0  0  0  0  0  0  0  0  0  0
   -2.9830   -4.7216    0.0000 C   0  0  0  0  0  0  0  0  0  0  0  0
   -3.3033   -6.1870    0.0000 C   0  0  0  0  0  0  0  0  0  0  0  0
   -4.7325   -6.6424    0.0000 C   0  0  0  0  0  0  0  0  0  0  0  0
   -2.1943   -7.1970    0.0000 C   0  0  0  0  0  0  0  0  0  0  0  0
   -2.5145   -8.6624    0.0000 O   0  0  0  0  0  0  0  0  0  0  0  0
   -0.7651   -6.7416    0.0000 N   0  0  0  0  0  0  0  0  0  0  0  0
   -0.4449   -5.2762    0.0000 C   0  0  0  0  0  0  0  0  0  0  0  0
    0.9843   -4.8208    0.0000 O   0  0  0  0  0  0  0  0  0  0  0  0
    1.1563    2.0509    0.0000 N   0  0  0  0  0  0  0  0  0  0  0  0
    2.2652    1.0409    0.0000 C   0  0  0  0  0  0  0  0  0  0  0  0
    1.9450   -0.4246    0.0000 O   0  0  0  0  0  0  0  0  0  0  0  0
    3.6944    1.4963    0.0000 O   0  0  0  0  0  0  0  0  0  0  0  0
    4.8034    0.4862    0.0000 C   0  0  0  0  0  0  0  0  0  0  0  0
    6.2326    0.9416    0.0000 C   0  0  0  0  0  0  0  0  0  0  0  0
    7.4411    0.0530    0.0000 C   0  0  0  0  0  0  0  0  0  0  0  0
    7.5894   -1.4396    0.0000 C   0  0  0  0  0  0  0  0  0  0  0  0
    8.9562   -2.0575    0.0000 C   0  0  0  0  0  0  0  0  0  0  0  0
   10.1747   -1.1828    0.0000 C   0  0  0  0  0  0  0  0  0  0  0  0
   10.0265    0.3099    0.0000 C   0  0  0  0  0  0  0  0  0  0  0  0
    8.6596    0.9278    0.0000 C   0  0  0  0  0  0  0  0  0  0  0  0
    8.2042    2.3570    0.0000 C   0  0  0  0  0  0  0  0  0  0  0  0
    8.9616    3.6517    0.0000 C   0  0  0  0  0  0  0  0  0  0  0  0
    8.2191    4.9550    0.0000 C   0  0  0  0  0  0  0  0  0  0  0  0
    6.7191    4.9636    0.0000 C   0  0  0  0  0  0  0  0  0  0  0  0
    5.9617    3.6688    0.0000 C   0  0  0  0  0  0  0  0  0  0  0  0
    6.7043    2.3655    0.0000 C   0  0  0  0  0  0  0  0  0  0  0  0
  1  2  1  0
  2  3  1  0
  3  4  1  0
  4  5  1  0
  5  6  1  0
  6  7  1  0
  7  8  1  0
  8  9  1  0
  9 10  1  0
 11 10  1  6
 11 12  1  0
 12 13  1  0
 13 14  1  0
 14 15  1  0
 15 16  2  0
 15 17  1  0
 13 18  1  0
 18 19  2  0
 18 20  1  0
 20 21  1  0
 21 22  1  0
 22 23  2  0
 23 24  1  0
 23 25  1  0
 25 26  2  0
 25 27  1  0
 27 28  1  0
 28 29  2  0
 11 30  1  0
 30 31  1  0
 31 32  2  0
 31 33  1  0
 33 34  1  0
 34 35  1  0
 35 36  1  0
 36 37  2  0
 37 38  1  0
 38 39  2  0
 39 40  1  0
 40 41  2  0
 41 42  1  0
 42 43  2  0
 43 44  1  0
 44 45  2  0
 45 46  1  0
 46 47  2  0
 28 21  1  0
 47 35  1  0
 41 36  1  0
 47 42  1  0
M  END
