
     RDKit          2D

 64 69  0  0  0  0  0  0  0  0999 V2000
   -9.3483   -9.7568    0.0000 C   0  0  0  0  0  0  0  0  0  0  0  0
   -7.8774   -9.4626    0.0000 C   0  0  0  0  0  0  0  0  0  0  0  0
   -6.4066   -9.1684    0.0000 C   0  0  0  0  0  0  0  0  0  0  0  0
   -7.5832  -10.9334    0.0000 C   0  0  0  0  0  0  0  0  0  0  0  0
   -8.1716   -7.9917    0.0000 O   0  0  0  0  0  0  0  0  0  0  0  0
   -7.0449   -7.0015    0.0000 C   0  0  0  0  0  0  0  0  0  0  0  0
   -5.6240   -7.4821    0.0000 O   0  0  0  0  0  0  0  0  0  0  0  0
   -7.3392   -5.5306    0.0000 N   0  0  0  0  0  0  0  0  0  0  0  0
   -6.2124   -4.5404    0.0000 C   0  0  0  0  0  0  0  0  0  0  0  0
   -6.5067   -3.0695    0.0000 C   0  0  0  0  0  0  0  0  0  0  0  0
   -5.3800   -2.0793    0.0000 C   0  0  0  0  0  0  0  0  0  0  0  0
   -5.6742   -0.6084    0.0000 C   0  0  0  0  0  0  0  0  0  0  0  0
   -4.5475    0.3818    0.0000 C   0  0  0  0  0  0  0  0  0  0  0  0
   -3.1266   -0.0989    0.0000 C   0  0  0  0  0  0  0  0  0  0  0  0
   -2.8323   -1.5697    0.0000 N   0  0  0  0  0  0  0  0  0  0  0  0
   -3.9590   -2.5599    0.0000 C   0  0  0  0  0  0  0  0  0  0  0  0
   -3.6648   -4.0308    0.0000 C   0  0  0  0  0  0  0  0  0  0  0  0
   -2.2439   -4.5115    0.0000 O   0  0  0  0  0  0  0  0  0  0  0  0
   -4.7915   -5.0210    0.0000 O   0  0  0  0  0  0  0  0  0  0  0  0
   -1.4114   -2.0504    0.0000 C   0  0  0  0  0  0  0  0  0  0  0  0
   -1.1172   -3.5212    0.0000 O   0  0  0  0  0  0  0  0  0  0  0  0
   -0.2847   -1.0601    0.0000 C   0  0  0  0  0  0  0  0  0  0  0  0
    1.1362   -1.5408    0.0000 N   0  0  0  0  0  0  0  0  0  0  0  0
    1.4304   -3.0116    0.0000 C   0  0  0  0  0  0  0  0  0  0  0  0
    2.8513   -3.4923    0.0000 C   0  0  0  0  0  0  0  0  0  0  0  0
    3.9780   -2.5021    0.0000 C   0  0  0  0  0  0  0  0  0  0  0  0
    5.3989   -2.9827    0.0000 N   0  0  0  0  0  0  0  0  0  0  0  0
    6.5256   -1.9925    0.0000 C   0  0  0  0  0  0  0  0  0  0  0  0
    6.2314   -0.5216    0.0000 O   0  0  0  0  0  0  0  0  0  0  0  0
    7.9465   -2.4731    0.0000 O   0  0  0  0  0  0  0  0  0  0  0  0
    9.0732   -1.4829    0.0000 C   0  0  0  0  0  0  0  0  0  0  0  0
   10.4941   -1.9635    0.0000 C   0  0  0  0  0  0  0  0  0  0  0  0
   10.7883   -3.4344    0.0000 C   0  0  0  0  0  0  0  0  0  0  0  0
   12.2092   -3.9150    0.0000 C   0  0  0  0  0  0  0  0  0  0  0  0
   13.3359   -2.9248    0.0000 C   0  0  0  0  0  0  0  0  0  0  0  0
   13.0417   -1.4539    0.0000 C   0  0  0  0  0  0  0  0  0  0  0  0
   11.6208   -0.9733    0.0000 C   0  0  0  0  0  0  0  0  0  0  0  0
    8.7790   -0.0120    0.0000 C   0  0  0  0  0  0  0  0  0  0  0  0
    9.9057    0.9782    0.0000 C   0  0  0  0  0  0  0  0  0  0  0  0
    9.6115    2.4491    0.0000 C   0  0  0  0  0  0  0  0  0  0  0  0
    8.1906    2.9297    0.0000 C   0  0  0  0  0  0  0  0  0  0  0  0
    7.0639    1.9395    0.0000 C   0  0  0  0  0  0  0  0  0  0  0  0
    7.3581    0.4686    0.0000 C   0  0  0  0  0  0  0  0  0  0  0  0
    3.6838   -1.0312    0.0000 N   0  0  0  0  0  0  0  0  0  0  0  0
    2.2629   -0.5506    0.0000 C   0  0  0  0  0  0  0  0  0  0  0  0
    1.9687    0.9203    0.0000 O   0  0  0  0  0  0  0  0  0  0  0  0
   -4.8417    1.8526    0.0000 N   0  0  0  0  0  0  0  0  0  0  0  0
   -3.7150    2.8429    0.0000 C   0  0  0  0  0  0  0  0  0  0  0  0
   -2.2941    2.3622    0.0000 O   0  0  0  0  0  0  0  0  0  0  0  0
   -4.0092    4.3137    0.0000 O   0  0  0  0  0  0  0  0  0  0  0  0
   -2.8825    5.3040    0.0000 C   0  0  0  0  0  0  0  0  0  0  0  0
   -3.1767    6.7748    0.0000 C   0  0  0  0  0  0  0  0  0  0  0  0
   -2.1597    7.8774    0.0000 C   0  0  0  0  0  0  0  0  0  0  0  0
   -0.6598    7.8594    0.0000 C   0  0  0  0  0  0  0  0  0  0  0  0
    0.1058    9.1493    0.0000 C   0  0  0  0  0  0  0  0  0  0  0  0
   -0.6285   10.4573    0.0000 C   0  0  0  0  0  0  0  0  0  0  0  0
   -2.1284   10.4753    0.0000 C   0  0  0  0  0  0  0  0  0  0  0  0
   -2.8940    9.1854    0.0000 C   0  0  0  0  0  0  0  0  0  0  0  0
   -4.3649    8.8911    0.0000 C   0  0  0  0  0  0  0  0  0  0  0  0
   -5.5677    9.7873    0.0000 C   0  0  0  0  0  0  0  0  0  0  0  0
   -6.9453    9.1938    0.0000 C   0  0  0  0  0  0  0  0  0  0  0  0
   -7.1200    7.7040    0.0000 C   0  0  0  0  0  0  0  0  0  0  0  0
   -5.9171    6.8078    0.0000 C   0  0  0  0  0  0  0  0  0  0  0  0
   -4.5396    7.4014    0.0000 C   0  0  0  0  0  0  0  0  0  0  0  0
  1  2  1  0
  2  3  1  0
  2  4  1  0
  2  5  1  0
  5  6  1  0
  6  7  2  0
  6  8  1  0
  8  9  1  0
  9 10  1  0
 10 11  1  0
 11 12  1  0
 13 12  1  6
 13 14  1  0
 14 15  1  0
 15 16  1  0
 16 17  1  0
 17 18  2  0
 17 19  1  0
 15 20  1  0
 20 21  2  0
 20 22  1  0
 22 23  1  0
 23 24  1  0
 24 25  2  0
 25 26  1  0
 26 27  1  0
 27 28  1  0
 28 29  2  0
 28 30  1  0
 30 31  1  0
 31 32  1  0
 32 33  2  0
 33 34  1  0
 34 35  2  0
 35 36  1  0
 36 37  2  0
 31 38  1  0
 38 39  2  0
 39 40  1  0
 40 41  2  0
 41 42  1  0
 42 43  2  0
 26 44  2  0
 44 45  1  0
 45 46  2  0
 13 47  1  0
 47 48  1  0
 48 49  2  0
 48 50  1  0
 50 51  1  0
 51 52  1  0
 52 53  1  0
 53 54  2  0
 54 55  1  0
 55 56  2  0
 56 57  1  0
 57 58  2  0
 58 59  1  0
 59 60  2  0
 60 61  1  0
 61 62  2  0
 62 63  1  0
 63 64  2  0
 45 23  1  0
 37 32  1  0
 43 38  1  0
 64 52  1  0
 58 53  1  0
 64 59  1  0
M  END
