
     RDKit          2D

 49 52  0  0  0  0  0  0  0  0999 V2000
  -10.6364    4.9816    0.0000 C   0  0  0  0  0  0  0  0  0  0  0  0
  -10.1556    3.5607    0.0000 C   0  0  0  0  0  0  0  0  0  0  0  0
   -9.6749    2.1398    0.0000 C   0  0  0  0  0  0  0  0  0  0  0  0
  -11.5765    3.0800    0.0000 C   0  0  0  0  0  0  0  0  0  0  0  0
   -8.7348    4.0415    0.0000 O   0  0  0  0  0  0  0  0  0  0  0  0
   -7.6080    3.0513    0.0000 C   0  0  0  0  0  0  0  0  0  0  0  0
   -7.9021    1.5804    0.0000 O   0  0  0  0  0  0  0  0  0  0  0  0
   -6.1871    3.5321    0.0000 N   0  0  0  0  0  0  0  0  0  0  0  0
   -5.0603    2.5419    0.0000 C   0  0  0  0  0  0  0  0  0  0  0  0
   -3.6395    3.0227    0.0000 C   0  0  0  0  0  0  0  0  0  0  0  0
   -2.5127    2.0325    0.0000 C   0  0  0  0  0  0  0  0  0  0  0  0
   -1.0918    2.5133    0.0000 C   0  0  0  0  0  0  0  0  0  0  0  0
    0.0350    1.5231    0.0000 C   0  0  0  0  0  0  0  0  0  0  0  0
   -0.2591    0.0523    0.0000 C   0  0  0  0  0  0  0  0  0  0  0  0
   -1.6800   -0.4285    0.0000 N   0  0  0  0  0  0  0  0  0  0  0  0
   -2.8068    0.5617    0.0000 C   0  0  0  0  0  0  0  0  0  0  0  0
   -4.2277    0.0809    0.0000 C   0  0  0  0  0  0  0  0  0  0  0  0
   -4.5217   -1.3900    0.0000 O   0  0  0  0  0  0  0  0  0  0  0  0
   -5.3544    1.0710    0.0000 O   0  0  0  0  0  0  0  0  0  0  0  0
   -1.9741   -1.8994    0.0000 C   0  0  0  0  0  0  0  0  0  0  0  0
   -3.3950   -2.3801    0.0000 O   0  0  0  0  0  0  0  0  0  0  0  0
   -0.8473   -2.8895    0.0000 C   0  0  0  0  0  0  0  0  0  0  0  0
   -1.1414   -4.3604    0.0000 N   0  0  0  0  0  0  0  0  0  0  0  0
   -2.5623   -4.8411    0.0000 C   0  0  0  0  0  0  0  0  0  0  0  0
   -2.8564   -6.3120    0.0000 C   0  0  0  0  0  0  0  0  0  0  0  0
   -4.2773   -6.7928    0.0000 C   0  0  0  0  0  0  0  0  0  0  0  0
   -1.7296   -7.3022    0.0000 C   0  0  0  0  0  0  0  0  0  0  0  0
   -2.0237   -8.7731    0.0000 O   0  0  0  0  0  0  0  0  0  0  0  0
   -0.3087   -6.8214    0.0000 N   0  0  0  0  0  0  0  0  0  0  0  0
   -0.0146   -5.3505    0.0000 C   0  0  0  0  0  0  0  0  0  0  0  0
    1.4062   -4.8698    0.0000 O   0  0  0  0  0  0  0  0  0  0  0  0
    1.4558    2.0039    0.0000 N   0  0  0  0  0  0  0  0  0  0  0  0
    2.5826    1.0138    0.0000 C   0  0  0  0  0  0  0  0  0  0  0  0
    2.2885   -0.4571    0.0000 O   0  0  0  0  0  0  0  0  0  0  0  0
    4.0035    1.4945    0.0000 O   0  0  0  0  0  0  0  0  0  0  0  0
    5.1303    0.5044    0.0000 C   0  0  0  0  0  0  0  0  0  0  0  0
    6.5511    0.9851    0.0000 C   0  0  0  0  0  0  0  0  0  0  0  0
    7.7752    0.1182    0.0000 C   0  0  0  0  0  0  0  0  0  0  0  0
    7.9501   -1.3716    0.0000 C   0  0  0  0  0  0  0  0  0  0  0  0
    9.3277   -1.9651    0.0000 C   0  0  0  0  0  0  0  0  0  0  0  0
   10.5304   -1.0688    0.0000 C   0  0  0  0  0  0  0  0  0  0  0  0
   10.3556    0.4210    0.0000 C   0  0  0  0  0  0  0  0  0  0  0  0
    8.9780    1.0145    0.0000 C   0  0  0  0  0  0  0  0  0  0  0  0
    8.4973    2.4353    0.0000 C   0  0  0  0  0  0  0  0  0  0  0  0
    9.2315    3.7434    0.0000 C   0  0  0  0  0  0  0  0  0  0  0  0
    8.4658    5.0332    0.0000 C   0  0  0  0  0  0  0  0  0  0  0  0
    6.9660    5.0151    0.0000 C   0  0  0  0  0  0  0  0  0  0  0  0
    6.2317    3.7071    0.0000 C   0  0  0  0  0  0  0  0  0  0  0  0
    6.9974    2.4172    0.0000 C   0  0  0  0  0  0  0  0  0  0  0  0
  1  2  1  0
  2  3  1  0
  2  4  1  0
  2  5  1  0
  5  6  1  0
  6  7  2  0
  6  8  1  0
  8  9  1  0
  9 10  1  0
 10 11  1  0
 11 12  1  0
 13 12  1  6
 13 14  1  0
 14 15  1  0
 15 16  1  0
 16 17  1  0
 17 18  2  0
 17 19  1  0
 15 20  1  0
 20 21  2  0
 20 22  1  0
 22 23  1  0
 23 24  1  0
 24 25  2  0
 25 26  1  0
 25 27  1  0
 27 28  2  0
 27 29  1  0
 29 30  1  0
 30 31  2  0
 13 32  1  0
 32 33  1  0
 33 34  2  0
 33 35  1  0
 35 36  1  0
 36 37  1  0
 37 38  1  0
 38 39  2  0
 39 40  1  0
 40 41  2  0
 41 42  1  0
 42 43  2  0
 43 44  1  0
 44 45  2  0
 45 46  1  0
 46 47  2  0
 47 48  1  0
 48 49  2  0
 30 23  1  0
 49 37  1  0
 43 38  1  0
 49 44  1  0
M  END
