
     RDKit          2D

 25 27  0  0  0  0  0  0  0  0999 V2000
   -5.9994    0.6747    0.0000 O   0  0  0  0  0  0  0  0  0  0  0  0
   -4.7256    1.4668    0.0000 C   0  0  0  0  0  0  0  0  0  0  0  0
   -4.7748    2.9660    0.0000 O   0  0  0  0  0  0  0  0  0  0  0  0
   -3.4027    0.7598    0.0000 C   0  0  0  0  0  0  0  0  0  0  0  0
   -3.3536   -0.7394    0.0000 N   0  0  0  0  0  0  0  0  0  0  0  0
   -4.6274   -1.5315    0.0000 C   0  0  0  0  0  0  0  0  0  0  0  0
   -5.9503   -0.8245    0.0000 C   0  0  0  0  0  0  0  0  0  0  0  0
   -7.2240   -1.6167    0.0000 O   0  0  0  0  0  0  0  0  0  0  0  0
   -2.0307   -1.4464    0.0000 C   0  0  0  0  0  0  0  0  0  0  0  0
   -1.9815   -2.9456    0.0000 O   0  0  0  0  0  0  0  0  0  0  0  0
   -0.7569   -0.6543    0.0000 O   0  0  0  0  0  0  0  0  0  0  0  0
    0.5660   -1.3613    0.0000 C   0  0  0  0  0  0  0  0  0  0  0  0
    1.8398   -0.5692    0.0000 C   0  0  0  0  0  0  0  0  0  0  0  0
    3.2294   -1.1341    0.0000 C   0  0  0  0  0  0  0  0  0  0  0  0
    3.7394   -2.5447    0.0000 C   0  0  0  0  0  0  0  0  0  0  0  0
    5.2160   -2.8083    0.0000 C   0  0  0  0  0  0  0  0  0  0  0  0
    6.1827   -1.6613    0.0000 C   0  0  0  0  0  0  0  0  0  0  0  0
    5.6726   -0.2507    0.0000 C   0  0  0  0  0  0  0  0  0  0  0  0
    4.1960    0.0129    0.0000 C   0  0  0  0  0  0  0  0  0  0  0  0
    3.4038    1.2867    0.0000 C   0  0  0  0  0  0  0  0  0  0  0  0
    3.8204    2.7277    0.0000 C   0  0  0  0  0  0  0  0  0  0  0  0
    2.7807    3.8090    0.0000 C   0  0  0  0  0  0  0  0  0  0  0  0
    1.3245    3.4492    0.0000 C   0  0  0  0  0  0  0  0  0  0  0  0
    0.9079    2.0082    0.0000 C   0  0  0  0  0  0  0  0  0  0  0  0
    1.9476    0.9269    0.0000 C   0  0  0  0  0  0  0  0  0  0  0  0
  1  2  2  0
  2  3  1  0
  2  4  1  0
  4  5  1  0
  5  6  1  0
  6  7  1  0
  7  8  1  0
  5  9  1  0
  9 10  2  0
  9 11  1  0
 11 12  1  0
 12 13  1  0
 13 14  1  0
 14 15  2  0
 15 16  1  0
 16 17  2  0
 17 18  1  0
 18 19  2  0
 19 20  1  0
 20 21  2  0
 21 22  1  0
 22 23  2  0
 23 24  1  0
 24 25  2  0
 25 13  1  0
 19 14  1  0
 25 20  1  0
M  END
