
     RDKit          2D

 22 23  0  0  0  0  0  0  0  0999 V2000
   -0.4764   -3.9968    0.0000 C   0  0  0  0  0  0  0  0  0  0  0  0
   -0.8111   -2.5346    0.0000 C   0  0  0  0  0  0  0  0  0  0  0  0
   -2.2448   -2.0934    0.0000 O   0  0  0  0  0  0  0  0  0  0  0  0
    0.2878   -1.5136    0.0000 O   0  0  0  0  0  0  0  0  0  0  0  0
   -0.0469   -0.0514    0.0000 I   0  0  0  0  0  0  0  0  0  0  0  0
    1.4078   -0.4170    0.0000 C   0  0  0  0  0  0  0  0  0  0  0  0
    2.1096   -1.7428    0.0000 C   0  0  0  0  0  0  0  0  0  0  0  0
    3.6086   -1.7979    0.0000 C   0  0  0  0  0  0  0  0  0  0  0  0
    4.4058   -0.5273    0.0000 C   0  0  0  0  0  0  0  0  0  0  0  0
    3.7040    0.7984    0.0000 C   0  0  0  0  0  0  0  0  0  0  0  0
    2.2051    0.8536    0.0000 C   0  0  0  0  0  0  0  0  0  0  0  0
    1.2430    2.0044    0.0000 C   0  0  0  0  0  0  0  0  0  0  0  0
    1.6086    3.4592    0.0000 O   0  0  0  0  0  0  0  0  0  0  0  0
   -0.1488    1.4451    0.0000 O   0  0  0  0  0  0  0  0  0  0  0  0
   -1.4266    0.5372    0.0000 O   0  0  0  0  0  0  0  0  0  0  0  0
   -1.6067    2.0264    0.0000 C   0  0  0  0  0  0  0  0  0  0  0  0
   -0.4070    2.9269    0.0000 O   0  0  0  0  0  0  0  0  0  0  0  0
   -2.9863    2.6150    0.0000 C   0  0  0  0  0  0  0  0  0  0  0  0
   -1.1978   -1.0135    0.0000 O   0  0  0  0  0  0  0  0  0  0  0  0
   -2.6064   -0.4979    0.0000 C   0  0  0  0  0  0  0  0  0  0  0  0
   -2.8641    0.9798    0.0000 O   0  0  0  0  0  0  0  0  0  0  0  0
   -3.7572   -1.4599    0.0000 C   0  0  0  0  0  0  0  0  0  0  0  0
  1  2  1  0
  2  3  2  0
  2  4  1  0
  4  5  1  0
  5  6  1  0
  6  7  2  0
  7  8  1  0
  8  9  2  0
  9 10  1  0
 10 11  2  0
 11 12  1  0
 12 13  2  0
 12 14  1  0
  5 15  1  0
 15 16  1  0
 16 17  2  0
 16 18  1  0
  5 19  1  0
 19 20  1  0
 20 21  2  0
 20 22  1  0
 14  5  1  0
 11  6  1  0
M  END
