
     RDKit          2D

  4  2  0  0  0  0  0  0  0  0999 V2000
    0.0000    1.0000    0.0000 Na  0  0  0  0  0 15  0  0  0  0  0  0
   -1.5000    0.0000    0.0000 B   0  0  0  0  0  0  0  0  0  0  0  0
    0.0000    0.0000    0.0000 C   0  0  0  0  0  0  0  0  0  0  0  0
    1.5000   -0.0000    0.0000 N   0  0  0  0  0  0  0  0  0  0  0  0
  2  3  1  0
  3  4  3  0
M  CHG  2   1   1   2  -1
M  END
