N-(2-Aminoethyl)glycine (Aeg Backbone)
     RDKit          2D

  8  7  0  0  0  0  0  0  0  0999 V2000
    4.2551   -0.1865    0.0000 N   0  0  0  0  0  0  0  0  0  0  0  0
    2.8948    0.4455    0.0000 C   0  0  0  0  0  0  0  0  0  0  0  0
    1.6672   -0.4165    0.0000 C   0  0  0  0  0  0  0  0  0  0  0  0
    0.3069    0.2155    0.0000 N   0  0  0  0  0  0  0  0  0  0  0  0
   -0.9207   -0.6465    0.0000 C   0  0  0  0  0  0  0  0  0  0  0  0
   -2.2810   -0.0145    0.0000 C   0  0  0  0  0  0  0  0  0  0  0  0
   -2.4138    1.4796    0.0000 O   0  0  0  0  0  0  0  0  0  0  0  0
   -3.5085   -0.8766    0.0000 O   0  0  0  0  0  0  0  0  0  0  0  0
  1  2  1  0
  2  3  1  0
  3  4  1  0
  4  5  1  0
  5  6  1  0
  6  7  2  0
  6  8  1  0
M  END
>  <ID>  (1) 
DST-PNA-001

>  <Name>  (1) 
N-(2-Aminoethyl)glycine (Aeg Backbone)

>  <Primary_Group>  (1) 
1. Standard Achiral PNA Monomers & Structural Backbone

>  <Formula>  (1) 
C4H10N2O2

>  <Molecular_Weight>  (1) 
118.14

>  <Exact_Mass>  (1) 
118.0742

>  <IUPAC_Name>  (1) 
2-[(2-aminoethyl)amino]acetic acid

>  <SMILES>  (1) 
NCCNCC(=O)O

>  <Functional_Role>  (1) 
Achiral, uncharged pseudopeptide backbone replacing the sugar-phosphodiester scaffold of natural nucleic acids.

>  <InChI>  (1) 
InChI=1S/C4H10N2O2/c5-1-2-6-3-4(7)8/h6H,1-3,5H2,(H,7,8)

>  <InChIKey>  (1) 
PIINGYXNCHTJTF-UHFFFAOYSA-N

$$$$
Fmoc-PNA-T-OH (Thymine PNA Monomer)
     RDKit          2D

 37 40  0  0  0  0  0  0  0  0999 V2000
   -9.6041   -2.1858    0.0000 C   0  0  0  0  0  0  0  0  0  0  0  0
   -8.1137   -2.0166    0.0000 C   0  0  0  0  0  0  0  0  0  0  0  0
   -7.5150   -0.6412    0.0000 C   0  0  0  0  0  0  0  0  0  0  0  0
   -6.0246   -0.4720    0.0000 N   0  0  0  0  0  0  0  0  0  0  0  0
   -5.4259    0.9034    0.0000 C   0  0  0  0  0  0  0  0  0  0  0  0
   -3.9355    1.0726    0.0000 C   0  0  0  0  0  0  0  0  0  0  0  0
   -3.0437   -0.1336    0.0000 O   0  0  0  0  0  0  0  0  0  0  0  0
   -3.3368    2.4479    0.0000 N   0  0  0  0  0  0  0  0  0  0  0  0
   -1.8464    2.6171    0.0000 C   0  0  0  0  0  0  0  0  0  0  0  0
   -0.9546    1.4110    0.0000 C   0  0  0  0  0  0  0  0  0  0  0  0
    0.5358    1.5802    0.0000 N   0  0  0  0  0  0  0  0  0  0  0  0
    1.4275    0.3741    0.0000 C   0  0  0  0  0  0  0  0  0  0  0  0
    0.8289   -1.0013    0.0000 O   0  0  0  0  0  0  0  0  0  0  0  0
    2.9180    0.5433    0.0000 O   0  0  0  0  0  0  0  0  0  0  0  0
    3.8097   -0.6628    0.0000 C   0  0  0  0  0  0  0  0  0  0  0  0
    5.3001   -0.4936    0.0000 C   0  0  0  0  0  0  0  0  0  0  0  0
    6.3131   -1.5999    0.0000 C   0  0  0  0  0  0  0  0  0  0  0  0
    6.1687   -3.0930    0.0000 C   0  0  0  0  0  0  0  0  0  0  0  0
    7.3896   -3.9645    0.0000 C   0  0  0  0  0  0  0  0  0  0  0  0
    8.7548   -3.3430    0.0000 C   0  0  0  0  0  0  0  0  0  0  0  0
    8.8991   -1.8500    0.0000 C   0  0  0  0  0  0  0  0  0  0  0  0
    7.6783   -0.9784    0.0000 C   0  0  0  0  0  0  0  0  0  0  0  0
    7.5091    0.5120    0.0000 C   0  0  0  0  0  0  0  0  0  0  0  0
    8.5034    1.6350    0.0000 C   0  0  0  0  0  0  0  0  0  0  0  0
    8.0280    3.0577    0.0000 C   0  0  0  0  0  0  0  0  0  0  0  0
    6.5583    3.3573    0.0000 C   0  0  0  0  0  0  0  0  0  0  0  0
    5.5639    2.2343    0.0000 C   0  0  0  0  0  0  0  0  0  0  0  0
    6.0393    0.8116    0.0000 C   0  0  0  0  0  0  0  0  0  0  0  0
   -4.2286    3.6541    0.0000 C   0  0  0  0  0  0  0  0  0  0  0  0
   -5.7190    3.4848    0.0000 C   0  0  0  0  0  0  0  0  0  0  0  0
   -6.3177    2.1095    0.0000 O   0  0  0  0  0  0  0  0  0  0  0  0
   -6.6108    4.6910    0.0000 O   0  0  0  0  0  0  0  0  0  0  0  0
   -5.1328   -1.6781    0.0000 C   0  0  0  0  0  0  0  0  0  0  0  0
   -3.6424   -1.5089    0.0000 O   0  0  0  0  0  0  0  0  0  0  0  0
   -5.7315   -3.0535    0.0000 N   0  0  0  0  0  0  0  0  0  0  0  0
   -7.2219   -3.2227    0.0000 C   0  0  0  0  0  0  0  0  0  0  0  0
   -7.8206   -4.5981    0.0000 O   0  0  0  0  0  0  0  0  0  0  0  0
  1  2  1  0
  2  3  2  0
  3  4  1  0
  4  5  1  0
  5  6  1  0
  6  7  2  0
  6  8  1  0
  8  9  1  0
  9 10  1  0
 10 11  1  0
 11 12  1  0
 12 13  2  0
 12 14  1  0
 14 15  1  0
 15 16  1  0
 16 17  1  0
 17 18  2  0
 18 19  1  0
 19 20  2  0
 20 21  1  0
 21 22  2  0
 22 23  1  0
 23 24  2  0
 24 25  1  0
 25 26  2  0
 26 27  1  0
 27 28  2  0
  8 29  1  0
 29 30  1  0
 30 31  2  0
 30 32  1  0
  4 33  1  0
 33 34  2  0
 33 35  1  0
 35 36  1  0
 36 37  2  0
 36  2  1  0
 28 16  1  0
 22 17  1  0
 28 23  1  0
M  END
>  <ID>  (2) 
DST-PNA-002

>  <Name>  (2) 
Fmoc-PNA-T-OH (Thymine PNA Monomer)

>  <Primary_Group>  (2) 
1. Standard Achiral PNA Monomers & Structural Backbone

>  <Formula>  (2) 
C26H26N4O7

>  <Molecular_Weight>  (2) 
506.52

>  <Exact_Mass>  (2) 
506.1801

>  <IUPAC_Name>  (2) 
2-[2-(9H-fluoren-9-ylmethoxycarbonylamino)ethyl-[2-(5-methyl-2,4-dioxopyrimidin-1-yl)acetyl]amino]acetic acid

>  <SMILES>  (2) 
Cc1cn(CC(=O)N(CCNC(=O)OCC2c3ccccc3-c3ccccc32)CC(=O)O)c(=O)[nH]c1=O

>  <Functional_Role>  (2) 
Standard Fmoc-protected thymine monomer for automated SPPS on Intavis MultiPep RSi synthesizer.

>  <InChI>  (2) 
InChI=1S/C26H26N4O7/c1-16-12-30(25(35)28-24(16)34)13-22(31)29(14-23(32)33)11-10-27-26(36)37-15-21-19-8-4-2-6-17(19)18-7-3-5-9-20(18)21/h2-9,12,21H,10-11,13-15H2,1H3,(H,27,36)(H,32,33)(H,28,34,35)

>  <InChIKey>  (2) 
REUYSHQBEXUIRY-UHFFFAOYSA-N

$$$$
Fmoc-PNA-A(Bhoc)-OH (Adenine PNA Monomer)
     RDKit          2D

 54 60  0  0  0  0  0  0  0  0999 V2000
   -0.5977    4.7138    0.0000 O   0  0  0  0  0  0  0  0  0  0  0  0
    0.4316    5.8049    0.0000 C   0  0  0  0  0  0  0  0  0  0  0  0
    0.0015    7.2419    0.0000 O   0  0  0  0  0  0  0  0  0  0  0  0
    1.8912    5.4589    0.0000 C   0  0  0  0  0  0  0  0  0  0  0  0
    2.3214    4.0219    0.0000 N   0  0  0  0  0  0  0  0  0  0  0  0
    3.7809    3.6760    0.0000 C   0  0  0  0  0  0  0  0  0  0  0  0
    4.2111    2.2390    0.0000 C   0  0  0  0  0  0  0  0  0  0  0  0
    5.6707    1.8930    0.0000 N   0  0  0  0  0  0  0  0  0  0  0  0
    6.1009    0.4560    0.0000 C   0  0  0  0  0  0  0  0  0  0  0  0
    5.0715   -0.6350    0.0000 O   0  0  0  0  0  0  0  0  0  0  0  0
    7.5604    0.1101    0.0000 O   0  0  0  0  0  0  0  0  0  0  0  0
    7.9906   -1.3269    0.0000 C   0  0  0  0  0  0  0  0  0  0  0  0
    9.4501   -1.6729    0.0000 C   0  0  0  0  0  0  0  0  0  0  0  0
   10.0282   -3.0570    0.0000 C   0  0  0  0  0  0  0  0  0  0  0  0
    9.3863   -4.4128    0.0000 C   0  0  0  0  0  0  0  0  0  0  0  0
   10.2395   -5.6465    0.0000 C   0  0  0  0  0  0  0  0  0  0  0  0
   11.7345   -5.5245    0.0000 C   0  0  0  0  0  0  0  0  0  0  0  0
   12.3764   -4.1687    0.0000 C   0  0  0  0  0  0  0  0  0  0  0  0
   11.5232   -2.9350    0.0000 C   0  0  0  0  0  0  0  0  0  0  0  0
   11.8692   -1.4755    0.0000 C   0  0  0  0  0  0  0  0  0  0  0  0
   13.1853   -0.7559    0.0000 C   0  0  0  0  0  0  0  0  0  0  0  0
   13.2202    0.7437    0.0000 C   0  0  0  0  0  0  0  0  0  0  0  0
   11.9390    1.5237    0.0000 C   0  0  0  0  0  0  0  0  0  0  0  0
   10.6229    0.8042    0.0000 C   0  0  0  0  0  0  0  0  0  0  0  0
   10.5879   -0.6954    0.0000 C   0  0  0  0  0  0  0  0  0  0  0  0
    1.2920    2.9309    0.0000 C   0  0  0  0  0  0  0  0  0  0  0  0
    1.7222    1.4939    0.0000 O   0  0  0  0  0  0  0  0  0  0  0  0
   -0.1676    3.2768    0.0000 C   0  0  0  0  0  0  0  0  0  0  0  0
   -1.1969    2.1858    0.0000 N   0  0  0  0  0  0  0  0  0  0  0  0
   -0.9193    0.7117    0.0000 C   0  0  0  0  0  0  0  0  0  0  0  0
   -2.2355   -0.0078    0.0000 N   0  0  0  0  0  0  0  0  0  0  0  0
   -3.3265    1.0216    0.0000 C   0  0  0  0  0  0  0  0  0  0  0  0
   -4.8216    0.8996    0.0000 C   0  0  0  0  0  0  0  0  0  0  0  0
   -5.4634   -0.4562    0.0000 N   0  0  0  0  0  0  0  0  0  0  0  0
   -6.9584   -0.5782    0.0000 C   0  0  0  0  0  0  0  0  0  0  0  0
   -7.8116    0.6555    0.0000 O   0  0  0  0  0  0  0  0  0  0  0  0
   -7.6003   -1.9339    0.0000 O   0  0  0  0  0  0  0  0  0  0  0  0
   -9.0953   -2.0559    0.0000 C   0  0  0  0  0  0  0  0  0  0  0  0
   -9.7372   -3.4117    0.0000 C   0  0  0  0  0  0  0  0  0  0  0  0
  -11.2322   -3.5337    0.0000 C   0  0  0  0  0  0  0  0  0  0  0  0
  -11.8741   -4.8894    0.0000 C   0  0  0  0  0  0  0  0  0  0  0  0
  -11.0209   -6.1232    0.0000 C   0  0  0  0  0  0  0  0  0  0  0  0
   -9.5259   -6.0011    0.0000 C   0  0  0  0  0  0  0  0  0  0  0  0
   -8.8840   -4.6454    0.0000 C   0  0  0  0  0  0  0  0  0  0  0  0
   -9.9485   -0.8222    0.0000 C   0  0  0  0  0  0  0  0  0  0  0  0
   -9.3066    0.5335    0.0000 C   0  0  0  0  0  0  0  0  0  0  0  0
  -10.1598    1.7673    0.0000 C   0  0  0  0  0  0  0  0  0  0  0  0
  -11.6549    1.6453    0.0000 C   0  0  0  0  0  0  0  0  0  0  0  0
  -12.2967    0.2895    0.0000 C   0  0  0  0  0  0  0  0  0  0  0  0
  -11.4435   -0.9442    0.0000 C   0  0  0  0  0  0  0  0  0  0  0  0
   -5.6747    2.1333    0.0000 N   0  0  0  0  0  0  0  0  0  0  0  0
   -5.0329    3.4890    0.0000 C   0  0  0  0  0  0  0  0  0  0  0  0
   -3.5379    3.6110    0.0000 N   0  0  0  0  0  0  0  0  0  0  0  0
   -2.6847    2.3773    0.0000 C   0  0  0  0  0  0  0  0  0  0  0  0
  1  2  2  0
  2  3  1  0
  2  4  1  0
  4  5  1  0
  5  6  1  0
  6  7  1  0
  7  8  1  0
  8  9  1  0
  9 10  2  0
  9 11  1  0
 11 12  1  0
 12 13  1  0
 13 14  1  0
 14 15  2  0
 15 16  1  0
 16 17  2  0
 17 18  1  0
 18 19  2  0
 19 20  1  0
 20 21  2  0
 21 22  1  0
 22 23  2  0
 23 24  1  0
 24 25  2  0
  5 26  1  0
 26 27  2  0
 26 28  1  0
 28 29  1  0
 29 30  1  0
 30 31  2  0
 31 32  1  0
 32 33  2  0
 33 34  1  0
 34 35  1  0
 35 36  2  0
 35 37  1  0
 37 38  1  0
 38 39  1  0
 39 40  2  0
 40 41  1  0
 41 42  2  0
 42 43  1  0
 43 44  2  0
 38 45  1  0
 45 46  2  0
 46 47  1  0
 47 48  2  0
 48 49  1  0
 49 50  2  0
 33 51  1  0
 51 52  2  0
 52 53  1  0
 53 54  2  0
 25 13  1  0
 54 29  1  0
 19 14  1  0
 25 20  1  0
 54 32  1  0
 44 39  1  0
 50 45  1  0
M  END
>  <ID>  (3) 
DST-PNA-003

>  <Name>  (3) 
Fmoc-PNA-A(Bhoc)-OH (Adenine PNA Monomer)

>  <Primary_Group>  (3) 
1. Standard Achiral PNA Monomers & Structural Backbone

>  <Formula>  (3) 
C40H35N7O7

>  <Molecular_Weight>  (3) 
725.76

>  <Exact_Mass>  (3) 
725.2598

>  <IUPAC_Name>  (3) 
2-[2-(9H-fluoren-9-ylmethoxycarbonylamino)ethyl-[2-[6-(benzhydryloxycarbonylamino)purin-9-yl]acetyl]amino]acetic acid

>  <SMILES>  (3) 
O=C(O)CN(CCNC(=O)OCC1c2ccccc2-c2ccccc21)C(=O)Cn1cnc2c(NC(=O)OC(c3ccccc3)c3ccccc3)ncnc21

>  <Functional_Role>  (3) 
Standard Fmoc-protected adenine monomer bearing exocyclic N6-Bhoc acid-labile protection.

>  <InChI>  (3) 
InChI=1S/C40H35N7O7/c48-33(46(22-34(49)50)20-19-41-39(51)53-23-32-30-17-9-7-15-28(30)29-16-8-10-18-31(29)32)21-47-25-44-35-37(42-24-43-38(35)47)45-40(52)54-36(26-11-3-1-4-12-26)27-13-5-2-6-14-27/h1-18,24-25,32,36H,19-23H2,(H,41,51)(H,49,50)(H,42,43,45,52)

>  <InChIKey>  (3) 
LVVQRXRVCLWIIO-UHFFFAOYSA-N

$$$$
Fmoc-PNA-C(Bhoc)-OH (Cytosine PNA Monomer)
     RDKit          2D

 52 57  0  0  0  0  0  0  0  0999 V2000
   -1.3700    4.6204    0.0000 O   0  0  0  0  0  0  0  0  0  0  0  0
   -0.3723    5.7405    0.0000 C   0  0  0  0  0  0  0  0  0  0  0  0
   -0.8434    7.1646    0.0000 O   0  0  0  0  0  0  0  0  0  0  0  0
    1.0966    5.4365    0.0000 C   0  0  0  0  0  0  0  0  0  0  0  0
    1.5677    4.0124    0.0000 N   0  0  0  0  0  0  0  0  0  0  0  0
    3.0366    3.7084    0.0000 C   0  0  0  0  0  0  0  0  0  0  0  0
    3.5078    2.2843    0.0000 C   0  0  0  0  0  0  0  0  0  0  0  0
    4.9766    1.9803    0.0000 N   0  0  0  0  0  0  0  0  0  0  0  0
    5.4478    0.5562    0.0000 C   0  0  0  0  0  0  0  0  0  0  0  0
    4.4501   -0.5639    0.0000 O   0  0  0  0  0  0  0  0  0  0  0  0
    6.9166    0.2522    0.0000 O   0  0  0  0  0  0  0  0  0  0  0  0
    7.3878   -1.1719    0.0000 C   0  0  0  0  0  0  0  0  0  0  0  0
    8.8567   -1.4759    0.0000 C   0  0  0  0  0  0  0  0  0  0  0  0
    9.4741   -2.8430    0.0000 C   0  0  0  0  0  0  0  0  0  0  0  0
    8.8713   -4.2165    0.0000 C   0  0  0  0  0  0  0  0  0  0  0  0
    9.7595   -5.4253    0.0000 C   0  0  0  0  0  0  0  0  0  0  0  0
   11.2504   -5.2605    0.0000 C   0  0  0  0  0  0  0  0  0  0  0  0
   11.8532   -3.8870    0.0000 C   0  0  0  0  0  0  0  0  0  0  0  0
   10.9650   -2.6782    0.0000 C   0  0  0  0  0  0  0  0  0  0  0  0
   11.2690   -1.2093    0.0000 C   0  0  0  0  0  0  0  0  0  0  0  0
   12.5640   -0.4524    0.0000 C   0  0  0  0  0  0  0  0  0  0  0  0
   12.5560    1.0476    0.0000 C   0  0  0  0  0  0  0  0  0  0  0  0
   11.2530    1.7906    0.0000 C   0  0  0  0  0  0  0  0  0  0  0  0
    9.9580    1.0337    0.0000 C   0  0  0  0  0  0  0  0  0  0  0  0
    9.9660   -0.4663    0.0000 C   0  0  0  0  0  0  0  0  0  0  0  0
    0.5700    2.8923    0.0000 C   0  0  0  0  0  0  0  0  0  0  0  0
    1.0412    1.4682    0.0000 O   0  0  0  0  0  0  0  0  0  0  0  0
   -0.8988    3.1963    0.0000 C   0  0  0  0  0  0  0  0  0  0  0  0
   -1.8966    2.0763    0.0000 N   0  0  0  0  0  0  0  0  0  0  0  0
   -3.3654    2.3803    0.0000 C   0  0  0  0  0  0  0  0  0  0  0  0
   -4.3632    1.2602    0.0000 C   0  0  0  0  0  0  0  0  0  0  0  0
   -3.8920   -0.1639    0.0000 C   0  0  0  0  0  0  0  0  0  0  0  0
   -4.8897   -1.2840    0.0000 N   0  0  0  0  0  0  0  0  0  0  0  0
   -6.3586   -0.9799    0.0000 C   0  0  0  0  0  0  0  0  0  0  0  0
   -6.8297    0.4441    0.0000 O   0  0  0  0  0  0  0  0  0  0  0  0
   -7.3563   -2.1000    0.0000 O   0  0  0  0  0  0  0  0  0  0  0  0
   -8.8252   -1.7960    0.0000 C   0  0  0  0  0  0  0  0  0  0  0  0
   -9.8229   -2.9161    0.0000 C   0  0  0  0  0  0  0  0  0  0  0  0
  -11.2918   -2.6121    0.0000 C   0  0  0  0  0  0  0  0  0  0  0  0
  -12.2895   -3.7321    0.0000 C   0  0  0  0  0  0  0  0  0  0  0  0
  -11.8183   -5.1562    0.0000 C   0  0  0  0  0  0  0  0  0  0  0  0
  -10.3495   -5.4602    0.0000 C   0  0  0  0  0  0  0  0  0  0  0  0
   -9.3517   -4.3401    0.0000 C   0  0  0  0  0  0  0  0  0  0  0  0
   -9.2963   -0.3719    0.0000 C   0  0  0  0  0  0  0  0  0  0  0  0
   -8.2986    0.7482    0.0000 C   0  0  0  0  0  0  0  0  0  0  0  0
   -8.7698    2.1722    0.0000 C   0  0  0  0  0  0  0  0  0  0  0  0
  -10.2386    2.4763    0.0000 C   0  0  0  0  0  0  0  0  0  0  0  0
  -11.2363    1.3562    0.0000 C   0  0  0  0  0  0  0  0  0  0  0  0
  -10.7652   -0.0679    0.0000 C   0  0  0  0  0  0  0  0  0  0  0  0
   -2.4231   -0.4679    0.0000 N   0  0  0  0  0  0  0  0  0  0  0  0
   -1.4254    0.6522    0.0000 C   0  0  0  0  0  0  0  0  0  0  0  0
    0.0435    0.3482    0.0000 O   0  0  0  0  0  0  0  0  0  0  0  0
  1  2  2  0
  2  3  1  0
  2  4  1  0
  4  5  1  0
  5  6  1  0
  6  7  1  0
  7  8  1  0
  8  9  1  0
  9 10  2  0
  9 11  1  0
 11 12  1  0
 12 13  1  0
 13 14  1  0
 14 15  2  0
 15 16  1  0
 16 17  2  0
 17 18  1  0
 18 19  2  0
 19 20  1  0
 20 21  2  0
 21 22  1  0
 22 23  2  0
 23 24  1  0
 24 25  2  0
  5 26  1  0
 26 27  2  0
 26 28  1  0
 28 29  1  0
 29 30  1  0
 30 31  2  0
 31 32  1  0
 32 33  1  0
 33 34  1  0
 34 35  2  0
 34 36  1  0
 36 37  1  0
 37 38  1  0
 38 39  2  0
 39 40  1  0
 40 41  2  0
 41 42  1  0
 42 43  2  0
 37 44  1  0
 44 45  2  0
 45 46  1  0
 46 47  2  0
 47 48  1  0
 48 49  2  0
 32 50  2  0
 50 51  1  0
 51 52  2  0
 25 13  1  0
 51 29  1  0
 19 14  1  0
 25 20  1  0
 43 38  1  0
 49 44  1  0
M  END
>  <ID>  (4) 
DST-PNA-004

>  <Name>  (4) 
Fmoc-PNA-C(Bhoc)-OH (Cytosine PNA Monomer)

>  <Primary_Group>  (4) 
1. Standard Achiral PNA Monomers & Structural Backbone

>  <Formula>  (4) 
C39H35N5O8

>  <Molecular_Weight>  (4) 
701.74

>  <Exact_Mass>  (4) 
701.2486

>  <IUPAC_Name>  (4) 
2-[2-(9H-fluoren-9-ylmethoxycarbonylamino)ethyl-[2-[4-(benzhydryloxycarbonylamino)-2-oxopyrimidin-1-yl]acetyl]amino]acetic acid

>  <SMILES>  (4) 
O=C(O)CN(CCNC(=O)OCC1c2ccccc2-c2ccccc21)C(=O)Cn1ccc(NC(=O)OC(c2ccccc2)c2ccccc2)nc1=O

>  <Functional_Role>  (4) 
Standard Fmoc-protected cytosine monomer with exocyclic N4-Bhoc protecting group.

>  <InChI>  (4) 
InChI=1S/C39H35N5O8/c45-34(23-44-21-19-33(41-37(44)48)42-39(50)52-36(26-11-3-1-4-12-26)27-13-5-2-6-14-27)43(24-35(46)47)22-20-40-38(49)51-25-32-30-17-9-7-15-28(30)29-16-8-10-18-31(29)32/h1-19,21,32,36H,20,22-25H2,(H,40,49)(H,46,47)(H,41,42,48,50)

>  <InChIKey>  (4) 
YPTOIRLDQISSCH-UHFFFAOYSA-N

$$$$
Fmoc-PNA-G(Bhoc)-OH (Guanine PNA Monomer)
     RDKit          2D

 55 61  0  0  0  0  0  0  0  0999 V2000
   -2.3860    0.1208    0.0000 O   0  0  0  0  0  0  0  0  0  0  0  0
   -2.1018    1.5936    0.0000 C   0  0  0  0  0  0  0  0  0  0  0  0
   -3.2352    2.5762    0.0000 O   0  0  0  0  0  0  0  0  0  0  0  0
   -0.6842    2.0838    0.0000 C   0  0  0  0  0  0  0  0  0  0  0  0
    0.4492    1.1013    0.0000 N   0  0  0  0  0  0  0  0  0  0  0  0
    1.8668    1.5915    0.0000 C   0  0  0  0  0  0  0  0  0  0  0  0
    3.0002    0.6089    0.0000 C   0  0  0  0  0  0  0  0  0  0  0  0
    4.4178    1.0992    0.0000 N   0  0  0  0  0  0  0  0  0  0  0  0
    5.5512    0.1166    0.0000 C   0  0  0  0  0  0  0  0  0  0  0  0
    5.2670   -1.3562    0.0000 O   0  0  0  0  0  0  0  0  0  0  0  0
    6.9688    0.6069    0.0000 O   0  0  0  0  0  0  0  0  0  0  0  0
    8.1022   -0.3757    0.0000 C   0  0  0  0  0  0  0  0  0  0  0  0
    9.5198    0.1146    0.0000 C   0  0  0  0  0  0  0  0  0  0  0  0
   10.7497   -0.7442    0.0000 C   0  0  0  0  0  0  0  0  0  0  0  0
   10.9345   -2.2327    0.0000 C   0  0  0  0  0  0  0  0  0  0  0  0
   12.3161   -2.8170    0.0000 C   0  0  0  0  0  0  0  0  0  0  0  0
   13.5128   -1.9127    0.0000 C   0  0  0  0  0  0  0  0  0  0  0  0
   13.3280   -0.4241    0.0000 C   0  0  0  0  0  0  0  0  0  0  0  0
   11.9465    0.1602    0.0000 C   0  0  0  0  0  0  0  0  0  0  0  0
   11.4562    1.5778    0.0000 C   0  0  0  0  0  0  0  0  0  0  0  0
   12.1817    2.8907    0.0000 C   0  0  0  0  0  0  0  0  0  0  0  0
   11.4074    4.1754    0.0000 C   0  0  0  0  0  0  0  0  0  0  0  0
    9.9077    4.1472    0.0000 C   0  0  0  0  0  0  0  0  0  0  0  0
    9.1822    2.8343    0.0000 C   0  0  0  0  0  0  0  0  0  0  0  0
    9.9565    1.5496    0.0000 C   0  0  0  0  0  0  0  0  0  0  0  0
    0.1650   -0.3716    0.0000 C   0  0  0  0  0  0  0  0  0  0  0  0
    1.2983   -1.3541    0.0000 O   0  0  0  0  0  0  0  0  0  0  0  0
   -1.2527   -0.8618    0.0000 C   0  0  0  0  0  0  0  0  0  0  0  0
   -1.5369   -2.3346    0.0000 N   0  0  0  0  0  0  0  0  0  0  0  0
   -0.5124   -3.4303    0.0000 C   0  0  0  0  0  0  0  0  0  0  0  0
   -1.2379   -4.7432    0.0000 N   0  0  0  0  0  0  0  0  0  0  0  0
   -2.7107   -4.4590    0.0000 C   0  0  0  0  0  0  0  0  0  0  0  0
   -3.9075   -5.3633    0.0000 C   0  0  0  0  0  0  0  0  0  0  0  0
   -3.7227   -6.8518    0.0000 O   0  0  0  0  0  0  0  0  0  0  0  0
   -5.2890   -4.7790    0.0000 N   0  0  0  0  0  0  0  0  0  0  0  0
   -5.4738   -3.2905    0.0000 C   0  0  0  0  0  0  0  0  0  0  0  0
   -6.8553   -2.7062    0.0000 N   0  0  0  0  0  0  0  0  0  0  0  0
   -7.0401   -1.2176    0.0000 C   0  0  0  0  0  0  0  0  0  0  0  0
   -5.8434   -0.3133    0.0000 O   0  0  0  0  0  0  0  0  0  0  0  0
   -8.4217   -0.6334    0.0000 O   0  0  0  0  0  0  0  0  0  0  0  0
   -8.6065    0.8552    0.0000 C   0  0  0  0  0  0  0  0  0  0  0  0
   -9.9880    1.4394    0.0000 C   0  0  0  0  0  0  0  0  0  0  0  0
  -10.1728    2.9280    0.0000 C   0  0  0  0  0  0  0  0  0  0  0  0
  -11.5544    3.5123    0.0000 C   0  0  0  0  0  0  0  0  0  0  0  0
  -12.7511    2.6079    0.0000 C   0  0  0  0  0  0  0  0  0  0  0  0
  -12.5663    1.1194    0.0000 C   0  0  0  0  0  0  0  0  0  0  0  0
  -11.1848    0.5351    0.0000 C   0  0  0  0  0  0  0  0  0  0  0  0
   -7.4097    1.7595    0.0000 C   0  0  0  0  0  0  0  0  0  0  0  0
   -6.0282    1.1753    0.0000 C   0  0  0  0  0  0  0  0  0  0  0  0
   -4.8314    2.0796    0.0000 C   0  0  0  0  0  0  0  0  0  0  0  0
   -5.0162    3.5682    0.0000 C   0  0  0  0  0  0  0  0  0  0  0  0
   -6.3978    4.1524    0.0000 C   0  0  0  0  0  0  0  0  0  0  0  0
   -7.5945    3.2481    0.0000 C   0  0  0  0  0  0  0  0  0  0  0  0
   -4.2771   -2.3861    0.0000 N   0  0  0  0  0  0  0  0  0  0  0  0
   -2.8955   -2.9704    0.0000 C   0  0  0  0  0  0  0  0  0  0  0  0
  1  2  2  0
  2  3  1  0
  2  4  1  0
  4  5  1  0
  5  6  1  0
  6  7  1  0
  7  8  1  0
  8  9  1  0
  9 10  2  0
  9 11  1  0
 11 12  1  0
 12 13  1  0
 13 14  1  0
 14 15  2  0
 15 16  1  0
 16 17  2  0
 17 18  1  0
 18 19  2  0
 19 20  1  0
 20 21  2  0
 21 22  1  0
 22 23  2  0
 23 24  1  0
 24 25  2  0
  5 26  1  0
 26 27  2  0
 26 28  1  0
 28 29  1  0
 29 30  1  0
 30 31  2  0
 31 32  1  0
 32 33  1  0
 33 34  2  0
 33 35  1  0
 35 36  1  0
 36 37  1  0
 37 38  1  0
 38 39  2  0
 38 40  1  0
 40 41  1  0
 41 42  1  0
 42 43  2  0
 43 44  1  0
 44 45  2  0
 45 46  1  0
 46 47  2  0
 41 48  1  0
 48 49  2  0
 49 50  1  0
 50 51  2  0
 51 52  1  0
 52 53  2  0
 36 54  2  0
 54 55  1  0
 25 13  1  0
 55 29  1  0
 19 14  1  0
 25 20  1  0
 55 32  2  0
 47 42  1  0
 53 48  1  0
M  END
>  <ID>  (5) 
DST-PNA-005

>  <Name>  (5) 
Fmoc-PNA-G(Bhoc)-OH (Guanine PNA Monomer)

>  <Primary_Group>  (5) 
1. Standard Achiral PNA Monomers & Structural Backbone

>  <Formula>  (5) 
C40H35N7O8

>  <Molecular_Weight>  (5) 
741.76

>  <Exact_Mass>  (5) 
741.2547

>  <IUPAC_Name>  (5) 
2-[2-(9H-fluoren-9-ylmethoxycarbonylamino)ethyl-[2-[2-(benzhydryloxycarbonylamino)-6-oxo-1H-purin-9-yl]acetyl]amino]acetic acid

>  <SMILES>  (5) 
O=C(O)CN(CCNC(=O)OCC1c2ccccc2-c2ccccc21)C(=O)Cn1cnc2c(=O)[nH]c(NC(=O)OC(c3ccccc3)c3ccccc3)nc21

>  <Functional_Role>  (5) 
Standard Fmoc-protected guanine monomer featuring N2-Bhoc protection for clean SPPS elongation.

>  <InChI>  (5) 
InChI=1S/C40H35N7O8/c48-32(46(22-33(49)50)20-19-41-39(52)54-23-31-29-17-9-7-15-27(29)28-16-8-10-18-30(28)31)21-47-24-42-34-36(47)43-38(44-37(34)51)45-40(53)55-35(25-11-3-1-4-12-25)26-13-5-2-6-14-26/h1-18,24,31,35H,19-23H2,(H,41,52)(H,49,50)(H2,43,44,45,51,53)

>  <InChIKey>  (5) 
ZNHVLNAONKUINW-UHFFFAOYSA-N

$$$$
Fmoc-A(Bhoc)-γ-Glu-OH (Chiral γ-L-Glutamyl PNA Adenine)
     RDKit          2D

 63 69  0  0  0  0  0  0  0  0999 V2000
    0.0327   -7.4388    0.0000 C   0  0  0  0  0  0  0  0  0  0  0  0
    1.5230   -7.6095    0.0000 C   0  0  0  0  0  0  0  0  0  0  0  0
    3.0132   -7.7803    0.0000 C   0  0  0  0  0  0  0  0  0  0  0  0
    1.3522   -9.0998    0.0000 C   0  0  0  0  0  0  0  0  0  0  0  0
    1.6937   -6.1193    0.0000 O   0  0  0  0  0  0  0  0  0  0  0  0
    3.0697   -5.5221    0.0000 C   0  0  0  0  0  0  0  0  0  0  0  0
    4.2749   -6.4151    0.0000 O   0  0  0  0  0  0  0  0  0  0  0  0
    3.2404   -4.0318    0.0000 C   0  0  0  0  0  0  0  0  0  0  0  0
    4.6164   -3.4346    0.0000 C   0  0  0  0  0  0  0  0  0  0  0  0
    4.7872   -1.9443    0.0000 C   0  0  0  0  0  0  0  0  0  0  0  0
    3.5820   -1.0513    0.0000 C   0  0  0  0  0  0  0  0  0  0  0  0
    2.2060   -1.6485    0.0000 N   0  0  0  0  0  0  0  0  0  0  0  0
    2.0352   -3.1388    0.0000 C   0  0  0  0  0  0  0  0  0  0  0  0
    0.6593   -3.7360    0.0000 C   0  0  0  0  0  0  0  0  0  0  0  0
   -0.5459   -2.8430    0.0000 O   0  0  0  0  0  0  0  0  0  0  0  0
    0.4885   -5.2263    0.0000 O   0  0  0  0  0  0  0  0  0  0  0  0
    1.0008   -0.7555    0.0000 C   0  0  0  0  0  0  0  0  0  0  0  0
    1.1716    0.7347    0.0000 O   0  0  0  0  0  0  0  0  0  0  0  0
   -0.3752   -1.3528    0.0000 C   0  0  0  0  0  0  0  0  0  0  0  0
   -1.5804   -0.4598    0.0000 N   0  0  0  0  0  0  0  0  0  0  0  0
   -1.5663    1.0402    0.0000 C   0  0  0  0  0  0  0  0  0  0  0  0
   -2.9885    1.5170    0.0000 N   0  0  0  0  0  0  0  0  0  0  0  0
   -3.8815    0.3118    0.0000 C   0  0  0  0  0  0  0  0  0  0  0  0
   -5.3747    0.1690    0.0000 C   0  0  0  0  0  0  0  0  0  0  0  0
   -6.2450    1.3907    0.0000 N   0  0  0  0  0  0  0  0  0  0  0  0
   -7.7382    1.2479    0.0000 C   0  0  0  0  0  0  0  0  0  0  0  0
   -8.3611   -0.1166    0.0000 O   0  0  0  0  0  0  0  0  0  0  0  0
   -8.6084    2.4697    0.0000 O   0  0  0  0  0  0  0  0  0  0  0  0
  -10.1016    2.3269    0.0000 C   0  0  0  0  0  0  0  0  0  0  0  0
  -10.9719    3.5486    0.0000 C   0  0  0  0  0  0  0  0  0  0  0  0
  -10.3490    4.9131    0.0000 C   0  0  0  0  0  0  0  0  0  0  0  0
  -11.2193    6.1349    0.0000 C   0  0  0  0  0  0  0  0  0  0  0  0
  -12.7124    5.9921    0.0000 C   0  0  0  0  0  0  0  0  0  0  0  0
  -13.3354    4.6275    0.0000 C   0  0  0  0  0  0  0  0  0  0  0  0
  -12.4651    3.4058    0.0000 C   0  0  0  0  0  0  0  0  0  0  0  0
  -10.7245    0.9623    0.0000 C   0  0  0  0  0  0  0  0  0  0  0  0
  -12.2177    0.8195    0.0000 C   0  0  0  0  0  0  0  0  0  0  0  0
  -12.8406   -0.5450    0.0000 C   0  0  0  0  0  0  0  0  0  0  0  0
  -11.9704   -1.7668    0.0000 C   0  0  0  0  0  0  0  0  0  0  0  0
  -10.4772   -1.6240    0.0000 C   0  0  0  0  0  0  0  0  0  0  0  0
   -9.8543   -0.2594    0.0000 C   0  0  0  0  0  0  0  0  0  0  0  0
   -5.9976   -1.1955    0.0000 N   0  0  0  0  0  0  0  0  0  0  0  0
   -5.1274   -2.4173    0.0000 C   0  0  0  0  0  0  0  0  0  0  0  0
   -3.6342   -2.2744    0.0000 N   0  0  0  0  0  0  0  0  0  0  0  0
   -3.0113   -0.9099    0.0000 C   0  0  0  0  0  0  0  0  0  0  0  0
    6.1632   -1.3471    0.0000 N   0  0  0  0  0  0  0  0  0  0  0  0
    6.3339    0.1432    0.0000 C   0  0  0  0  0  0  0  0  0  0  0  0
    5.1287    1.0362    0.0000 O   0  0  0  0  0  0  0  0  0  0  0  0
    7.7099    0.7404    0.0000 O   0  0  0  0  0  0  0  0  0  0  0  0
    7.8807    2.2307    0.0000 C   0  0  0  0  0  0  0  0  0  0  0  0
    9.2566    2.8279    0.0000 C   0  0  0  0  0  0  0  0  0  0  0  0
    9.5822    4.2921    0.0000 C   0  0  0  0  0  0  0  0  0  0  0  0
    8.7120    5.5139    0.0000 C   0  0  0  0  0  0  0  0  0  0  0  0
    9.3349    6.8784    0.0000 C   0  0  0  0  0  0  0  0  0  0  0  0
   10.8281    7.0212    0.0000 C   0  0  0  0  0  0  0  0  0  0  0  0
   11.6983    5.7995    0.0000 C   0  0  0  0  0  0  0  0  0  0  0  0
   11.0754    4.4349    0.0000 C   0  0  0  0  0  0  0  0  0  0  0  0
   11.6727    3.0590    0.0000 C   0  0  0  0  0  0  0  0  0  0  0  0
   13.0948    2.5821    0.0000 C   0  0  0  0  0  0  0  0  0  0  0  0
   13.3929    1.1120    0.0000 C   0  0  0  0  0  0  0  0  0  0  0  0
   12.2689    0.1188    0.0000 C   0  0  0  0  0  0  0  0  0  0  0  0
   10.8467    0.5957    0.0000 C   0  0  0  0  0  0  0  0  0  0  0  0
   10.5486    2.0658    0.0000 C   0  0  0  0  0  0  0  0  0  0  0  0
  1  2  1  0
  2  3  1  0
  2  4  1  0
  2  5  1  0
  5  6  1  0
  6  7  2  0
  6  8  1  0
  8  9  1  0
 10  9  1  1
 10 11  1  0
 11 12  1  0
 12 13  1  0
 13 14  1  0
 14 15  2  0
 14 16  1  0
 12 17  1  0
 17 18  2  0
 17 19  1  0
 19 20  1  0
 20 21  1  0
 21 22  2  0
 22 23  1  0
 23 24  2  0
 24 25  1  0
 25 26  1  0
 26 27  2  0
 26 28  1  0
 28 29  1  0
 29 30  1  0
 30 31  2  0
 31 32  1  0
 32 33  2  0
 33 34  1  0
 34 35  2  0
 29 36  1  0
 36 37  2  0
 37 38  1  0
 38 39  2  0
 39 40  1  0
 40 41  2  0
 24 42  1  0
 42 43  2  0
 43 44  1  0
 44 45  2  0
 10 46  1  0
 46 47  1  0
 47 48  2  0
 47 49  1  0
 49 50  1  0
 50 51  1  0
 51 52  1  0
 52 53  2  0
 53 54  1  0
 54 55  2  0
 55 56  1  0
 56 57  2  0
 57 58  1  0
 58 59  2  0
 59 60  1  0
 60 61  2  0
 61 62  1  0
 62 63  2  0
 45 20  1  0
 63 51  1  0
 45 23  1  0
 57 52  1  0
 63 58  1  0
 35 30  1  0
 41 36  1  0
M  END
>  <ID>  (6) 
DST-GAM-001

>  <Name>  (6) 
Fmoc-A(Bhoc)-γ-Glu-OH (Chiral γ-L-Glutamyl PNA Adenine)

>  <Primary_Group>  (6) 
2. Chiral γ-L-Glutamyl PNA Monomers

>  <Formula>  (6) 
C47H47N7O9

>  <Molecular_Weight>  (6) 
853.93

>  <Exact_Mass>  (6) 
853.3435

>  <IUPAC_Name>  (6) 
2-[[2-[6-(benzhydryloxycarbonylamino)purin-9-yl]acetyl]-[(2S)-5-tert-butoxy-2-(9H-fluoren-9-ylmethoxycarbonylamino)-5-oxopentyl]amino]acetic acid

>  <SMILES>  (6) 
CC(C)(C)OC(=O)CC[C@@H](CN(CC(=O)O)C(=O)Cn1cnc2c(NC(=O)OC(c3ccccc3)c3ccccc3)ncnc21)NC(=O)OCC1c2ccccc2-c2ccccc21

>  <Functional_Role>  (6) 
Chiral (S)-γ-modified PNA adenine building block derived from L-glutamic acid. Key component validated in batch DGL-260520-001 (DGL 299-3p_6.0). Induces a stable right-handed duplex conformation with elevated target affinity and improved water solubility.

>  <InChI>  (6) 
InChI=1S/C47H47N7O9/c1-47(2,3)63-40(58)23-22-32(51-45(59)61-27-37-35-20-12-10-18-33(35)34-19-11-13-21-36(34)37)24-53(26-39(56)57)38(55)25-54-29-50-41-43(48-28-49-44(41)54)52-46(60)62-42(30-14-6-4-7-15-30)31-16-8-5-9-17-31/h4-21,28-29,32,37,42H,22-27H2,1-3H3,(H,51,59)(H,56,57)(H,48,49,52,60)/t32-/m0/s1

>  <InChIKey>  (6) 
BGNUXBDQPRTVAI-YTTGMZPUSA-N

$$$$
Fmoc-Cglu(Bhoc)-OH (Chiral γ-L-Glutamyl PNA Cytosine)
     RDKit          2D

 61 66  0  0  0  0  0  0  0  0999 V2000
   -0.7459   -7.3350    0.0000 C   0  0  0  0  0  0  0  0  0  0  0  0
    0.7374   -7.5581    0.0000 C   0  0  0  0  0  0  0  0  0  0  0  0
    2.2207   -7.7812    0.0000 C   0  0  0  0  0  0  0  0  0  0  0  0
    0.5143   -9.0415    0.0000 C   0  0  0  0  0  0  0  0  0  0  0  0
    0.9605   -6.0748    0.0000 O   0  0  0  0  0  0  0  0  0  0  0  0
    2.3567   -5.5264    0.0000 C   0  0  0  0  0  0  0  0  0  0  0  0
    3.5297   -6.4612    0.0000 O   0  0  0  0  0  0  0  0  0  0  0  0
    2.5797   -4.0431    0.0000 C   0  0  0  0  0  0  0  0  0  0  0  0
    3.9759   -3.4946    0.0000 C   0  0  0  0  0  0  0  0  0  0  0  0
    4.1990   -2.0113    0.0000 C   0  0  0  0  0  0  0  0  0  0  0  0
    3.0259   -1.0764    0.0000 C   0  0  0  0  0  0  0  0  0  0  0  0
    1.6298   -1.6249    0.0000 N   0  0  0  0  0  0  0  0  0  0  0  0
    1.4067   -3.1082    0.0000 C   0  0  0  0  0  0  0  0  0  0  0  0
    0.0106   -3.6566    0.0000 C   0  0  0  0  0  0  0  0  0  0  0  0
   -1.1625   -2.7218    0.0000 O   0  0  0  0  0  0  0  0  0  0  0  0
   -0.2125   -5.1400    0.0000 O   0  0  0  0  0  0  0  0  0  0  0  0
    0.4568   -0.6900    0.0000 C   0  0  0  0  0  0  0  0  0  0  0  0
    0.6799    0.7933    0.0000 O   0  0  0  0  0  0  0  0  0  0  0  0
   -0.9394   -1.2385    0.0000 C   0  0  0  0  0  0  0  0  0  0  0  0
   -2.1124   -0.3036    0.0000 N   0  0  0  0  0  0  0  0  0  0  0  0
   -1.8893    1.1797    0.0000 C   0  0  0  0  0  0  0  0  0  0  0  0
   -3.0624    2.1146    0.0000 C   0  0  0  0  0  0  0  0  0  0  0  0
   -4.4585    1.5661    0.0000 C   0  0  0  0  0  0  0  0  0  0  0  0
   -5.6316    2.5010    0.0000 N   0  0  0  0  0  0  0  0  0  0  0  0
   -7.0277    1.9525    0.0000 C   0  0  0  0  0  0  0  0  0  0  0  0
   -7.2508    0.4692    0.0000 O   0  0  0  0  0  0  0  0  0  0  0  0
   -8.2007    2.8874    0.0000 O   0  0  0  0  0  0  0  0  0  0  0  0
   -9.5969    2.3390    0.0000 C   0  0  0  0  0  0  0  0  0  0  0  0
  -10.7699    3.2738    0.0000 C   0  0  0  0  0  0  0  0  0  0  0  0
  -10.5468    4.7571    0.0000 C   0  0  0  0  0  0  0  0  0  0  0  0
  -11.7199    5.6920    0.0000 C   0  0  0  0  0  0  0  0  0  0  0  0
  -13.1160    5.1435    0.0000 C   0  0  0  0  0  0  0  0  0  0  0  0
  -13.3391    3.6602    0.0000 C   0  0  0  0  0  0  0  0  0  0  0  0
  -12.1660    2.7254    0.0000 C   0  0  0  0  0  0  0  0  0  0  0  0
   -9.8200    0.8556    0.0000 C   0  0  0  0  0  0  0  0  0  0  0  0
  -11.2161    0.3072    0.0000 C   0  0  0  0  0  0  0  0  0  0  0  0
  -11.4392   -1.1761    0.0000 C   0  0  0  0  0  0  0  0  0  0  0  0
  -10.2662   -2.1110    0.0000 C   0  0  0  0  0  0  0  0  0  0  0  0
   -8.8700   -1.5625    0.0000 C   0  0  0  0  0  0  0  0  0  0  0  0
   -8.6469   -0.0792    0.0000 C   0  0  0  0  0  0  0  0  0  0  0  0
   -4.6816    0.0828    0.0000 N   0  0  0  0  0  0  0  0  0  0  0  0
   -3.5086   -0.8520    0.0000 C   0  0  0  0  0  0  0  0  0  0  0  0
   -3.7317   -2.3354    0.0000 O   0  0  0  0  0  0  0  0  0  0  0  0
    5.5951   -1.4628    0.0000 N   0  0  0  0  0  0  0  0  0  0  0  0
    5.8182    0.0205    0.0000 C   0  0  0  0  0  0  0  0  0  0  0  0
    4.6452    0.9554    0.0000 O   0  0  0  0  0  0  0  0  0  0  0  0
    7.2144    0.5689    0.0000 O   0  0  0  0  0  0  0  0  0  0  0  0
    7.4374    2.0523    0.0000 C   0  0  0  0  0  0  0  0  0  0  0  0
    8.8336    2.6007    0.0000 C   0  0  0  0  0  0  0  0  0  0  0  0
    9.2105    4.0526    0.0000 C   0  0  0  0  0  0  0  0  0  0  0  0
    8.3838    5.3042    0.0000 C   0  0  0  0  0  0  0  0  0  0  0  0
    9.0543    6.6460    0.0000 C   0  0  0  0  0  0  0  0  0  0  0  0
   10.5516    6.7361    0.0000 C   0  0  0  0  0  0  0  0  0  0  0  0
   11.3783    5.4845    0.0000 C   0  0  0  0  0  0  0  0  0  0  0  0
   10.7078    4.1428    0.0000 C   0  0  0  0  0  0  0  0  0  0  0  0
   11.2562    2.7466    0.0000 C   0  0  0  0  0  0  0  0  0  0  0  0
   12.6608    2.2200    0.0000 C   0  0  0  0  0  0  0  0  0  0  0  0
   12.9070    0.7403    0.0000 C   0  0  0  0  0  0  0  0  0  0  0  0
   11.7486   -0.2127    0.0000 C   0  0  0  0  0  0  0  0  0  0  0  0
   10.3441    0.3139    0.0000 C   0  0  0  0  0  0  0  0  0  0  0  0
   10.0979    1.7936    0.0000 C   0  0  0  0  0  0  0  0  0  0  0  0
  1  2  1  0
  2  3  1  0
  2  4  1  0
  2  5  1  0
  5  6  1  0
  6  7  2  0
  6  8  1  0
  8  9  1  0
 10  9  1  1
 10 11  1  0
 11 12  1  0
 12 13  1  0
 13 14  1  0
 14 15  2  0
 14 16  1  0
 12 17  1  0
 17 18  2  0
 17 19  1  0
 19 20  1  0
 20 21  1  0
 21 22  2  0
 22 23  1  0
 23 24  1  0
 24 25  1  0
 25 26  2  0
 25 27  1  0
 27 28  1  0
 28 29  1  0
 29 30  2  0
 30 31  1  0
 31 32  2  0
 32 33  1  0
 33 34  2  0
 28 35  1  0
 35 36  2  0
 36 37  1  0
 37 38  2  0
 38 39  1  0
 39 40  2  0
 23 41  2  0
 41 42  1  0
 42 43  2  0
 10 44  1  0
 44 45  1  0
 45 46  2  0
 45 47  1  0
 47 48  1  0
 48 49  1  0
 49 50  1  0
 50 51  2  0
 51 52  1  0
 52 53  2  0
 53 54  1  0
 54 55  2  0
 55 56  1  0
 56 57  2  0
 57 58  1  0
 58 59  2  0
 59 60  1  0
 60 61  2  0
 42 20  1  0
 61 49  1  0
 34 29  1  0
 40 35  1  0
 55 50  1  0
 61 56  1  0
M  END
>  <ID>  (7) 
DST-GAM-002

>  <Name>  (7) 
Fmoc-Cglu(Bhoc)-OH (Chiral γ-L-Glutamyl PNA Cytosine)

>  <Primary_Group>  (7) 
2. Chiral γ-L-Glutamyl PNA Monomers

>  <Formula>  (7) 
C46H47N5O10

>  <Molecular_Weight>  (7) 
829.91

>  <Exact_Mass>  (7) 
829.3323

>  <IUPAC_Name>  (7) 
2-[[2-[4-(benzhydryloxycarbonylamino)-2-oxopyrimidin-1-yl]acetyl]-[(2S)-5-tert-butoxy-2-(9H-fluoren-9-ylmethoxycarbonylamino)-5-oxopentyl]amino]acetic acid

>  <SMILES>  (7) 
CC(C)(C)OC(=O)CC[C@@H](CN(CC(=O)O)C(=O)Cn1ccc(NC(=O)OC(c2ccccc2)c2ccccc2)nc1=O)NC(=O)OCC1c2ccccc2-c2ccccc21

>  <Functional_Role>  (7) 
Chiral (S)-γ-L-glutamyl cytosine PNA monomer with OtBu ester and Bhoc protection. Pre-organizes PNA into a right-handed helix and eliminates sequence-dependent aggregation.

>  <InChI>  (7) 
InChI=1S/C46H47N5O10/c1-46(2,3)61-41(55)23-22-32(47-44(57)59-29-37-35-20-12-10-18-33(35)34-19-11-13-21-36(34)37)26-51(28-40(53)54)39(52)27-50-25-24-38(48-43(50)56)49-45(58)60-42(30-14-6-4-7-15-30)31-16-8-5-9-17-31/h4-21,24-25,32,37,42H,22-23,26-29H2,1-3H3,(H,47,57)(H,53,54)(H,48,49,56,58)/t32-/m0/s1

>  <InChIKey>  (7) 
NONXVLBZJMDUMY-YTTGMZPUSA-N

$$$$
Fmoc-Gglu(Bhoc)-OH (Chiral γ-L-Glutamyl PNA Guanine)
     RDKit          2D

 64 70  0  0  0  0  0  0  0  0999 V2000
   -2.0438   -5.1723    0.0000 C   0  0  0  0  0  0  0  0  0  0  0  0
   -0.7141   -5.8665    0.0000 C   0  0  0  0  0  0  0  0  0  0  0  0
    0.6155   -6.5607    0.0000 C   0  0  0  0  0  0  0  0  0  0  0  0
   -1.4084   -7.1962    0.0000 C   0  0  0  0  0  0  0  0  0  0  0  0
   -0.0199   -4.5368    0.0000 O   0  0  0  0  0  0  0  0  0  0  0  0
    1.4787   -4.4732    0.0000 C   0  0  0  0  0  0  0  0  0  0  0  0
    2.2832   -5.7393    0.0000 O   0  0  0  0  0  0  0  0  0  0  0  0
    2.1730   -3.1435    0.0000 C   0  0  0  0  0  0  0  0  0  0  0  0
    3.6716   -3.0799    0.0000 C   0  0  0  0  0  0  0  0  0  0  0  0
    4.3658   -1.7502    0.0000 C   0  0  0  0  0  0  0  0  0  0  0  0
    3.5614   -0.4842    0.0000 C   0  0  0  0  0  0  0  0  0  0  0  0
    2.0628   -0.5478    0.0000 N   0  0  0  0  0  0  0  0  0  0  0  0
    1.3685   -1.8775    0.0000 C   0  0  0  0  0  0  0  0  0  0  0  0
   -0.1301   -1.9411    0.0000 C   0  0  0  0  0  0  0  0  0  0  0  0
   -0.9345   -0.6750    0.0000 O   0  0  0  0  0  0  0  0  0  0  0  0
   -0.8243   -3.2708    0.0000 O   0  0  0  0  0  0  0  0  0  0  0  0
    1.2583    0.7183    0.0000 C   0  0  0  0  0  0  0  0  0  0  0  0
    1.9526    2.0480    0.0000 O   0  0  0  0  0  0  0  0  0  0  0  0
   -0.2403    0.6547    0.0000 C   0  0  0  0  0  0  0  0  0  0  0  0
   -1.0447    1.9207    0.0000 N   0  0  0  0  0  0  0  0  0  0  0  0
   -0.4933    3.3157    0.0000 C   0  0  0  0  0  0  0  0  0  0  0  0
   -1.6496    4.2712    0.0000 N   0  0  0  0  0  0  0  0  0  0  0  0
   -2.9157    3.4668    0.0000 C   0  0  0  0  0  0  0  0  0  0  0  0
   -4.3606    3.8694    0.0000 C   0  0  0  0  0  0  0  0  0  0  0  0
   -4.7344    5.3220    0.0000 O   0  0  0  0  0  0  0  0  0  0  0  0
   -5.4318    2.8193    0.0000 N   0  0  0  0  0  0  0  0  0  0  0  0
   -5.0579    1.3666    0.0000 C   0  0  0  0  0  0  0  0  0  0  0  0
   -6.1291    0.3165    0.0000 N   0  0  0  0  0  0  0  0  0  0  0  0
   -7.5740    0.7191    0.0000 C   0  0  0  0  0  0  0  0  0  0  0  0
   -7.9479    2.1718    0.0000 O   0  0  0  0  0  0  0  0  0  0  0  0
   -8.6452   -0.3309    0.0000 O   0  0  0  0  0  0  0  0  0  0  0  0
  -10.0901    0.0717    0.0000 C   0  0  0  0  0  0  0  0  0  0  0  0
  -11.1613   -0.9784    0.0000 C   0  0  0  0  0  0  0  0  0  0  0  0
  -12.6062   -0.5758    0.0000 C   0  0  0  0  0  0  0  0  0  0  0  0
  -13.6774   -1.6259    0.0000 C   0  0  0  0  0  0  0  0  0  0  0  0
  -13.3036   -3.0786    0.0000 C   0  0  0  0  0  0  0  0  0  0  0  0
  -11.8586   -3.4812    0.0000 C   0  0  0  0  0  0  0  0  0  0  0  0
  -10.7875   -2.4311    0.0000 C   0  0  0  0  0  0  0  0  0  0  0  0
  -10.4640    1.5243    0.0000 C   0  0  0  0  0  0  0  0  0  0  0  0
   -9.3928    2.5744    0.0000 C   0  0  0  0  0  0  0  0  0  0  0  0
   -9.7666    4.0271    0.0000 C   0  0  0  0  0  0  0  0  0  0  0  0
  -11.2116    4.4297    0.0000 C   0  0  0  0  0  0  0  0  0  0  0  0
  -12.2827    3.3796    0.0000 C   0  0  0  0  0  0  0  0  0  0  0  0
  -11.9089    1.9269    0.0000 C   0  0  0  0  0  0  0  0  0  0  0  0
   -3.6130    0.9640    0.0000 N   0  0  0  0  0  0  0  0  0  0  0  0
   -2.5418    2.0141    0.0000 C   0  0  0  0  0  0  0  0  0  0  0  0
    5.8645   -1.6866    0.0000 N   0  0  0  0  0  0  0  0  0  0  0  0
    6.5587   -0.3569    0.0000 C   0  0  0  0  0  0  0  0  0  0  0  0
    5.7543    0.9091    0.0000 O   0  0  0  0  0  0  0  0  0  0  0  0
    8.0574   -0.2933    0.0000 O   0  0  0  0  0  0  0  0  0  0  0  0
    8.7516    1.0364    0.0000 C   0  0  0  0  0  0  0  0  0  0  0  0
   10.2502    1.1000    0.0000 C   0  0  0  0  0  0  0  0  0  0  0  0
   11.0796    2.3498    0.0000 C   0  0  0  0  0  0  0  0  0  0  0  0
   10.7058    3.8025    0.0000 C   0  0  0  0  0  0  0  0  0  0  0  0
   11.7770    4.8526    0.0000 C   0  0  0  0  0  0  0  0  0  0  0  0
   13.2219    4.4500    0.0000 C   0  0  0  0  0  0  0  0  0  0  0  0
   13.5957    2.9973    0.0000 C   0  0  0  0  0  0  0  0  0  0  0  0
   12.5246    1.9472    0.0000 C   0  0  0  0  0  0  0  0  0  0  0  0
   12.5882    0.4486    0.0000 C   0  0  0  0  0  0  0  0  0  0  0  0
   13.7445   -0.5069    0.0000 C   0  0  0  0  0  0  0  0  0  0  0  0
   13.4952   -1.9860    0.0000 C   0  0  0  0  0  0  0  0  0  0  0  0
   12.0895   -2.5097    0.0000 C   0  0  0  0  0  0  0  0  0  0  0  0
   10.9332   -1.5542    0.0000 C   0  0  0  0  0  0  0  0  0  0  0  0
   11.1826   -0.0750    0.0000 C   0  0  0  0  0  0  0  0  0  0  0  0
  1  2  1  0
  2  3  1  0
  2  4  1  0
  2  5  1  0
  5  6  1  0
  6  7  2  0
  6  8  1  0
  8  9  1  0
 10  9  1  1
 10 11  1  0
 11 12  1  0
 12 13  1  0
 13 14  1  0
 14 15  2  0
 14 16  1  0
 12 17  1  0
 17 18  2  0
 17 19  1  0
 19 20  1  0
 20 21  1  0
 21 22  2  0
 22 23  1  0
 23 24  1  0
 24 25  2  0
 24 26  1  0
 26 27  1  0
 27 28  1  0
 28 29  1  0
 29 30  2  0
 29 31  1  0
 31 32  1  0
 32 33  1  0
 33 34  2  0
 34 35  1  0
 35 36  2  0
 36 37  1  0
 37 38  2  0
 32 39  1  0
 39 40  2  0
 40 41  1  0
 41 42  2  0
 42 43  1  0
 43 44  2  0
 27 45  2  0
 45 46  1  0
 10 47  1  0
 47 48  1  0
 48 49  2  0
 48 50  1  0
 50 51  1  0
 51 52  1  0
 52 53  1  0
 53 54  2  0
 54 55  1  0
 55 56  2  0
 56 57  1  0
 57 58  2  0
 58 59  1  0
 59 60  2  0
 60 61  1  0
 61 62  2  0
 62 63  1  0
 63 64  2  0
 46 20  1  0
 64 52  1  0
 46 23  2  0
 58 53  1  0
 64 59  1  0
 38 33  1  0
 44 39  1  0
M  END
>  <ID>  (8) 
DST-GAM-003

>  <Name>  (8) 
Fmoc-Gglu(Bhoc)-OH (Chiral γ-L-Glutamyl PNA Guanine)

>  <Primary_Group>  (8) 
2. Chiral γ-L-Glutamyl PNA Monomers

>  <Formula>  (8) 
C47H47N7O10

>  <Molecular_Weight>  (8) 
869.93

>  <Exact_Mass>  (8) 
869.3384

>  <IUPAC_Name>  (8) 
2-[[2-[2-(benzhydryloxycarbonylamino)-6-oxo-1H-purin-9-yl]acetyl]-[(2S)-5-tert-butoxy-2-(9H-fluoren-9-ylmethoxycarbonylamino)-5-oxopentyl]amino]acetic acid

>  <SMILES>  (8) 
CC(C)(C)OC(=O)CC[C@@H](CN(CC(=O)O)C(=O)Cn1cnc2c(=O)[nH]c(NC(=O)OC(c3ccccc3)c3ccccc3)nc21)NC(=O)OCC1c2ccccc2-c2ccccc21

>  <Functional_Role>  (8) 
Chiral (S)-γ-L-glutamyl guanine PNA monomer. Completes the chiral γ-Glu PNA quartet, preventing G-quadruplex formation while increasing RNA binding affinity.

>  <InChI>  (8) 
InChI=1S/C47H47N7O10/c1-47(2,3)64-39(58)23-22-31(49-45(60)62-27-36-34-20-12-10-18-32(34)33-19-11-13-21-35(33)36)24-53(26-38(56)57)37(55)25-54-28-48-40-42(54)50-44(51-43(40)59)52-46(61)63-41(29-14-6-4-7-15-29)30-16-8-5-9-17-30/h4-21,28,31,36,41H,22-27H2,1-3H3,(H,49,60)(H,56,57)(H2,50,51,52,59,61)/t31-/m0/s1

>  <InChIKey>  (8) 
QINXCLKOINLORI-HKBQPEDESA-N

$$$$
Fmoc-T-γ-Glu-OH (Chiral γ-L-Glutamyl PNA Thymine)
     RDKit          2D

 46 49  0  0  0  0  0  0  0  0999 V2000
   -6.5159    2.3626    0.0000 C   0  0  0  0  0  0  0  0  0  0  0  0
   -6.6666    0.8702    0.0000 C   0  0  0  0  0  0  0  0  0  0  0  0
   -5.4495   -0.0065    0.0000 C   0  0  0  0  0  0  0  0  0  0  0  0
   -5.6002   -1.4989    0.0000 N   0  0  0  0  0  0  0  0  0  0  0  0
   -4.3830   -2.3756    0.0000 C   0  0  0  0  0  0  0  0  0  0  0  0
   -3.0152   -1.7599    0.0000 C   0  0  0  0  0  0  0  0  0  0  0  0
   -2.8645   -0.2675    0.0000 O   0  0  0  0  0  0  0  0  0  0  0  0
   -1.7981   -2.6366    0.0000 N   0  0  0  0  0  0  0  0  0  0  0  0
   -1.9488   -4.1290    0.0000 C   0  0  0  0  0  0  0  0  0  0  0  0
   -3.3166   -4.7447    0.0000 C   0  0  0  0  0  0  0  0  0  0  0  0
   -4.5337   -3.8680    0.0000 O   0  0  0  0  0  0  0  0  0  0  0  0
   -3.4673   -6.2371    0.0000 O   0  0  0  0  0  0  0  0  0  0  0  0
   -0.4303   -2.0209    0.0000 C   0  0  0  0  0  0  0  0  0  0  0  0
   -0.2796   -0.5285    0.0000 C   0  0  0  0  0  0  0  0  0  0  0  0
   -1.4967    0.3482    0.0000 C   0  0  0  0  0  0  0  0  0  0  0  0
   -1.3461    1.8406    0.0000 C   0  0  0  0  0  0  0  0  0  0  0  0
   -2.5632    2.7173    0.0000 C   0  0  0  0  0  0  0  0  0  0  0  0
   -3.9310    2.1016    0.0000 O   0  0  0  0  0  0  0  0  0  0  0  0
   -2.4125    4.2098    0.0000 O   0  0  0  0  0  0  0  0  0  0  0  0
   -3.6296    5.0865    0.0000 C   0  0  0  0  0  0  0  0  0  0  0  0
   -2.7529    6.3036    0.0000 C   0  0  0  0  0  0  0  0  0  0  0  0
   -4.5063    3.8693    0.0000 C   0  0  0  0  0  0  0  0  0  0  0  0
   -4.8467    5.9632    0.0000 C   0  0  0  0  0  0  0  0  0  0  0  0
    1.0882    0.0872    0.0000 N   0  0  0  0  0  0  0  0  0  0  0  0
    2.3053   -0.7895    0.0000 C   0  0  0  0  0  0  0  0  0  0  0  0
    2.1546   -2.2819    0.0000 O   0  0  0  0  0  0  0  0  0  0  0  0
    3.6731   -0.1737    0.0000 O   0  0  0  0  0  0  0  0  0  0  0  0
    4.8903   -1.0504    0.0000 C   0  0  0  0  0  0  0  0  0  0  0  0
    6.2581   -0.4347    0.0000 C   0  0  0  0  0  0  0  0  0  0  0  0
    7.5602   -1.1794    0.0000 C   0  0  0  0  0  0  0  0  0  0  0  0
    7.8780   -2.6453    0.0000 C   0  0  0  0  0  0  0  0  0  0  0  0
    9.3065   -3.1030    0.0000 C   0  0  0  0  0  0  0  0  0  0  0  0
   10.4171   -2.0948    0.0000 C   0  0  0  0  0  0  0  0  0  0  0  0
   10.0992   -0.6288    0.0000 C   0  0  0  0  0  0  0  0  0  0  0  0
    8.6708   -0.1711    0.0000 C   0  0  0  0  0  0  0  0  0  0  0  0
    8.0551    1.1967    0.0000 C   0  0  0  0  0  0  0  0  0  0  0  0
    8.6595    2.5695    0.0000 C   0  0  0  0  0  0  0  0  0  0  0  0
    7.7729    3.7794    0.0000 C   0  0  0  0  0  0  0  0  0  0  0  0
    6.2818    3.6165    0.0000 C   0  0  0  0  0  0  0  0  0  0  0  0
    5.6773    2.2437    0.0000 C   0  0  0  0  0  0  0  0  0  0  0  0
    6.5639    1.0338    0.0000 C   0  0  0  0  0  0  0  0  0  0  0  0
   -6.9680   -2.1146    0.0000 C   0  0  0  0  0  0  0  0  0  0  0  0
   -7.1186   -3.6070    0.0000 O   0  0  0  0  0  0  0  0  0  0  0  0
   -8.1851   -1.2379    0.0000 N   0  0  0  0  0  0  0  0  0  0  0  0
   -8.0344    0.2545    0.0000 C   0  0  0  0  0  0  0  0  0  0  0  0
   -9.2515    1.1312    0.0000 O   0  0  0  0  0  0  0  0  0  0  0  0
  1  2  1  0
  2  3  2  0
  3  4  1  0
  4  5  1  0
  5  6  1  0
  6  7  2  0
  6  8  1  0
  8  9  1  0
  9 10  1  0
 10 11  2  0
 10 12  1  0
  8 13  1  0
 14 13  1  6
 14 15  1  0
 15 16  1  0
 16 17  1  0
 17 18  2  0
 17 19  1  0
 19 20  1  0
 20 21  1  0
 20 22  1  0
 20 23  1  0
 14 24  1  0
 24 25  1  0
 25 26  2  0
 25 27  1  0
 27 28  1  0
 28 29  1  0
 29 30  1  0
 30 31  2  0
 31 32  1  0
 32 33  2  0
 33 34  1  0
 34 35  2  0
 35 36  1  0
 36 37  2  0
 37 38  1  0
 38 39  2  0
 39 40  1  0
 40 41  2  0
  4 42  1  0
 42 43  2  0
 42 44  1  0
 44 45  1  0
 45 46  2  0
 45  2  1  0
 41 29  1  0
 35 30  1  0
 41 36  1  0
M  END
>  <ID>  (9) 
DST-GAM-004

>  <Name>  (9) 
Fmoc-T-γ-Glu-OH (Chiral γ-L-Glutamyl PNA Thymine)

>  <Primary_Group>  (9) 
2. Chiral γ-L-Glutamyl PNA Monomers

>  <Formula>  (9) 
C33H38N4O9

>  <Molecular_Weight>  (9) 
634.69

>  <Exact_Mass>  (9) 
634.2639

>  <IUPAC_Name>  (9) 
2-[[(2S)-5-tert-butoxy-2-(9H-fluoren-9-ylmethoxycarbonylamino)-5-oxopentyl]-[2-(5-methyl-2,4-dioxopyrimidin-1-yl)acetyl]amino]acetic acid

>  <SMILES>  (9) 
Cc1cn(CC(=O)N(CC(=O)O)C[C@H](CCC(=O)OC(C)(C)C)NC(=O)OCC2c3ccccc3-c3ccccc32)c(=O)[nH]c1=O

>  <Functional_Role>  (9) 
Chiral (S)-γ-L-glutamyl thymine monomer validated in batch DGL-260520-001. Provides steric pre-organization, ΔTm enhancement, and negative carboxylate charge post-deprotection.

>  <InChI>  (9) 
InChI=1S/C33H38N4O9/c1-20-15-37(31(43)35-30(20)42)17-27(38)36(18-28(39)40)16-21(13-14-29(41)46-33(2,3)4)34-32(44)45-19-26-24-11-7-5-9-22(24)23-10-6-8-12-25(23)26/h5-12,15,21,26H,13-14,16-19H2,1-4H3,(H,34,44)(H,39,40)(H,35,42,43)/t21-/m0/s1

>  <InChIKey>  (9) 
QJZFJLHTIZYHET-NRFANRHFSA-N

$$$$
Fmoc-*L-Ser*-OH (Chiral Abasic DGL PNA Monomer)
     RDKit          2D

 38 40  0  0  0  0  0  0  0  0999 V2000
   -4.8097   -2.9749    0.0000 C   0  0  0  0  0  0  0  0  0  0  0  0
   -3.3316   -3.2299    0.0000 C   0  0  0  0  0  0  0  0  0  0  0  0
   -1.8534   -3.4850    0.0000 C   0  0  0  0  0  0  0  0  0  0  0  0
   -3.5867   -4.7081    0.0000 C   0  0  0  0  0  0  0  0  0  0  0  0
   -3.0765   -1.7518    0.0000 O   0  0  0  0  0  0  0  0  0  0  0  0
   -1.6689   -1.2336    0.0000 C   0  0  0  0  0  0  0  0  0  0  0  0
   -1.4138    0.2445    0.0000 C   0  0  0  0  0  0  0  0  0  0  0  0
   -2.5664    1.2045    0.0000 C   0  0  0  0  0  0  0  0  0  0  0  0
   -3.9740    0.6863    0.0000 N   0  0  0  0  0  0  0  0  0  0  0  0
   -4.2291   -0.7918    0.0000 C   0  0  0  0  0  0  0  0  0  0  0  0
   -5.6368   -1.3100    0.0000 C   0  0  0  0  0  0  0  0  0  0  0  0
   -6.7893   -0.3500    0.0000 O   0  0  0  0  0  0  0  0  0  0  0  0
   -5.8918   -2.7882    0.0000 O   0  0  0  0  0  0  0  0  0  0  0  0
   -5.1266    1.6463    0.0000 C   0  0  0  0  0  0  0  0  0  0  0  0
   -4.8716    3.1245    0.0000 O   0  0  0  0  0  0  0  0  0  0  0  0
   -6.5343    1.1281    0.0000 O   0  0  0  0  0  0  0  0  0  0  0  0
   -7.6869    2.0881    0.0000 C   0  0  0  0  0  0  0  0  0  0  0  0
   -8.6468    0.9355    0.0000 C   0  0  0  0  0  0  0  0  0  0  0  0
   -6.7269    3.2407    0.0000 C   0  0  0  0  0  0  0  0  0  0  0  0
   -8.8394    3.0481    0.0000 C   0  0  0  0  0  0  0  0  0  0  0  0
   -0.0061    0.7627    0.0000 N   0  0  0  0  0  0  0  0  0  0  0  0
    1.1464   -0.1973    0.0000 C   0  0  0  0  0  0  0  0  0  0  0  0
    0.8914   -1.6754    0.0000 O   0  0  0  0  0  0  0  0  0  0  0  0
    2.5541    0.3209    0.0000 O   0  0  0  0  0  0  0  0  0  0  0  0
    3.7067   -0.6390    0.0000 C   0  0  0  0  0  0  0  0  0  0  0  0
    5.1143   -0.1209    0.0000 C   0  0  0  0  0  0  0  0  0  0  0  0
    6.3609   -0.9551    0.0000 C   0  0  0  0  0  0  0  0  0  0  0  0
    6.5751   -2.4397    0.0000 C   0  0  0  0  0  0  0  0  0  0  0  0
    7.9680   -2.9965    0.0000 C   0  0  0  0  0  0  0  0  0  0  0  0
    9.1466   -2.0687    0.0000 C   0  0  0  0  0  0  0  0  0  0  0  0
    8.9324   -0.5841    0.0000 C   0  0  0  0  0  0  0  0  0  0  0  0
    7.5396   -0.0273    0.0000 C   0  0  0  0  0  0  0  0  0  0  0  0
    7.0214    1.3804    0.0000 C   0  0  0  0  0  0  0  0  0  0  0  0
    7.7208    2.7074    0.0000 C   0  0  0  0  0  0  0  0  0  0  0  0
    6.9212    3.9765    0.0000 C   0  0  0  0  0  0  0  0  0  0  0  0
    5.4223    3.9187    0.0000 C   0  0  0  0  0  0  0  0  0  0  0  0
    4.7230    2.5917    0.0000 C   0  0  0  0  0  0  0  0  0  0  0  0
    5.5225    1.3225    0.0000 C   0  0  0  0  0  0  0  0  0  0  0  0
  1  2  1  0
  2  3  1  0
  2  4  1  0
  2  5  1  0
  5  6  1  0
  7  6  1  1
  7  8  1  0
  8  9  1  0
  9 10  1  0
 10 11  1  0
 11 12  2  0
 11 13  1  0
  9 14  1  0
 14 15  2  0
 14 16  1  0
 16 17  1  0
 17 18  1  0
 17 19  1  0
 17 20  1  0
  7 21  1  0
 21 22  1  0
 22 23  2  0
 22 24  1  0
 24 25  1  0
 25 26  1  0
 26 27  1  0
 27 28  2  0
 28 29  1  0
 29 30  2  0
 30 31  1  0
 31 32  2  0
 32 33  1  0
 33 34  2  0
 34 35  1  0
 35 36  2  0
 36 37  1  0
 37 38  2  0
 38 26  1  0
 32 27  1  0
 38 33  1  0
M  END
>  <ID>  (10) 
DST-DGL-001

>  <Name>  (10) 
Fmoc-*L-Ser*-OH (Chiral Abasic DGL PNA Monomer)

>  <Primary_Group>  (10) 
3. Abasic DGL Monomers (Dynamic Chemical Labeling)

>  <Formula>  (10) 
C29H38N2O7

>  <Molecular_Weight>  (10) 
526.63

>  <Exact_Mass>  (10) 
526.2679

>  <IUPAC_Name>  (10) 
2-[[(2S)-3-tert-butoxy-2-(9H-fluoren-9-ylmethoxycarbonylamino)propyl]-[(2-methylpropan-2-yl)oxycarbonyl]amino]acetic acid

>  <SMILES>  (10) 
CC(C)(C)OC[C@@H](CN(CC(=O)O)C(=O)OC(C)(C)C)NC(=O)OCC1c2ccccc2-c2ccccc21

>  <Functional_Role>  (10) 
Chiral L-serine-derived abasic building block validated in batch DGL-260520-001. Features a protected (S)-CH2OtBu γ-sidechain and central Boc-protected secondary amine, creating the defined pocket for Dynamic Chemical Labeling (DCL).

>  <InChI>  (10) 
InChI=1S/C29H38N2O7/c1-28(2,3)37-17-19(15-31(16-25(32)33)27(35)38-29(4,5)6)30-26(34)36-18-24-22-13-9-7-11-20(22)21-12-8-10-14-23(21)24/h7-14,19,24H,15-18H2,1-6H3,(H,30,34)(H,32,33)/t19-/m1/s1

>  <InChIKey>  (10) 
LBQVHNGCJVJCAP-LJQANCHMSA-N

$$$$
Fmoc-Aeg-OH (Achiral Abasic DGL Monomer)
     RDKit          2D

 25 27  0  0  0  0  0  0  0  0999 V2000
   -9.2408   -1.4428    0.0000 O   0  0  0  0  0  0  0  0  0  0  0  0
   -9.0843    0.0490    0.0000 C   0  0  0  0  0  0  0  0  0  0  0  0
  -10.2980    0.9305    0.0000 O   0  0  0  0  0  0  0  0  0  0  0  0
   -7.7141    0.6594    0.0000 C   0  0  0  0  0  0  0  0  0  0  0  0
   -6.5004   -0.2221    0.0000 N   0  0  0  0  0  0  0  0  0  0  0  0
   -5.1302    0.3883    0.0000 C   0  0  0  0  0  0  0  0  0  0  0  0
   -3.9165   -0.4932    0.0000 C   0  0  0  0  0  0  0  0  0  0  0  0
   -2.5463    0.1172    0.0000 N   0  0  0  0  0  0  0  0  0  0  0  0
   -1.3326   -0.7643    0.0000 C   0  0  0  0  0  0  0  0  0  0  0  0
   -1.4891   -2.2561    0.0000 O   0  0  0  0  0  0  0  0  0  0  0  0
    0.0376   -0.1539    0.0000 O   0  0  0  0  0  0  0  0  0  0  0  0
    1.2513   -1.0354    0.0000 C   0  0  0  0  0  0  0  0  0  0  0  0
    2.6215   -0.4250    0.0000 C   0  0  0  0  0  0  0  0  0  0  0  0
    3.9207   -1.1748    0.0000 C   0  0  0  0  0  0  0  0  0  0  0  0
    4.2328   -2.6419    0.0000 C   0  0  0  0  0  0  0  0  0  0  0  0
    5.6595   -3.1052    0.0000 C   0  0  0  0  0  0  0  0  0  0  0  0
    6.7740   -2.1013    0.0000 C   0  0  0  0  0  0  0  0  0  0  0  0
    6.4619   -0.6341    0.0000 C   0  0  0  0  0  0  0  0  0  0  0  0
    5.0352   -0.1709    0.0000 C   0  0  0  0  0  0  0  0  0  0  0  0
    4.4249    1.1994    0.0000 C   0  0  0  0  0  0  0  0  0  0  0  0
    5.0347    2.5698    0.0000 C   0  0  0  0  0  0  0  0  0  0  0  0
    4.1528    3.7831    0.0000 C   0  0  0  0  0  0  0  0  0  0  0  0
    2.6610    3.6261    0.0000 C   0  0  0  0  0  0  0  0  0  0  0  0
    2.0512    2.2556    0.0000 C   0  0  0  0  0  0  0  0  0  0  0  0
    2.9331    1.0423    0.0000 C   0  0  0  0  0  0  0  0  0  0  0  0
  1  2  2  0
  2  3  1  0
  2  4  1  0
  4  5  1  0
  5  6  1  0
  6  7  1  0
  7  8  1  0
  8  9  1  0
  9 10  2  0
  9 11  1  0
 11 12  1  0
 12 13  1  0
 13 14  1  0
 14 15  2  0
 15 16  1  0
 16 17  2  0
 17 18  1  0
 18 19  2  0
 19 20  1  0
 20 21  2  0
 21 22  1  0
 22 23  2  0
 23 24  1  0
 24 25  2  0
 25 13  1  0
 19 14  1  0
 25 20  1  0
M  END
>  <ID>  (11) 
DST-DGL-002

>  <Name>  (11) 
Fmoc-Aeg-OH (Achiral Abasic DGL Monomer)

>  <Primary_Group>  (11) 
3. Abasic DGL Monomers (Dynamic Chemical Labeling)

>  <Formula>  (11) 
C19H20N2O4

>  <Molecular_Weight>  (11) 
340.38

>  <Exact_Mass>  (11) 
340.1423

>  <IUPAC_Name>  (11) 
2-[2-(9H-fluoren-9-ylmethoxycarbonylamino)ethylamino]acetic acid

>  <SMILES>  (11) 
O=C(O)CNCCNC(=O)OCC1c2ccccc2-c2ccccc21

>  <Functional_Role>  (11) 
Achiral abasic monomer generating an unhindered secondary amine pocket within the PNA duplex for Watson-Crick guided dynamic base incorporation (Patent WO2018011320).

>  <InChI>  (11) 
InChI=1S/C19H20N2O4/c22-18(23)11-20-9-10-21-19(24)25-12-17-15-7-3-1-5-13(15)14-6-2-4-8-16(14)17/h1-8,17,20H,9-12H2,(H,21,24)(H,22,23)

>  <InChIKey>  (11) 
SBRGQYMCIVBMQJ-UHFFFAOYSA-N

$$$$
SMART C REX PEG12-Biotin (Aldehyde Cytosine Probe)
     RDKit          2D

 71 73  0  0  0  0  0  0  0  0999 V2000
   32.8916    2.7434    0.0000 N   0  0  0  0  0  0  0  0  0  0  0  0
   32.9189    1.2437    0.0000 C   0  0  0  0  0  0  0  0  0  0  0  0
   34.2314    0.5175    0.0000 N   0  0  0  0  0  0  0  0  0  0  0  0
   34.2587   -0.9823    0.0000 C   0  0  0  0  0  0  0  0  0  0  0  0
   35.5712   -1.7085    0.0000 O   0  0  0  0  0  0  0  0  0  0  0  0
   32.9735   -1.7558    0.0000 N   0  0  0  0  0  0  0  0  0  0  0  0
   33.0008   -3.2556    0.0000 C   0  0  0  0  0  0  0  0  0  0  0  0
   31.7157   -4.0291    0.0000 C   0  0  0  0  0  0  0  0  0  0  0  0
   31.7430   -5.5289    0.0000 O   0  0  0  0  0  0  0  0  0  0  0  0
   31.6611   -1.0296    0.0000 C   0  0  0  0  0  0  0  0  0  0  0  0
   31.6337    0.4702    0.0000 C   0  0  0  0  0  0  0  0  0  0  0  0
   30.3213    1.1964    0.0000 C   0  0  0  0  0  0  0  0  0  0  0  0
   29.0361    0.4228    0.0000 C   0  0  0  0  0  0  0  0  0  0  0  0
   27.7236    1.1491    0.0000 C   0  0  0  0  0  0  0  0  0  0  0  0
   26.4384    0.3755    0.0000 N   0  0  0  0  0  0  0  0  0  0  0  0
   25.1260    1.1018    0.0000 C   0  0  0  0  0  0  0  0  0  0  0  0
   25.0987    2.6015    0.0000 O   0  0  0  0  0  0  0  0  0  0  0  0
   23.8408    0.3282    0.0000 C   0  0  0  0  0  0  0  0  0  0  0  0
   22.5283    1.0544    0.0000 C   0  0  0  0  0  0  0  0  0  0  0  0
   21.2432    0.2809    0.0000 O   0  0  0  0  0  0  0  0  0  0  0  0
   19.9307    1.0071    0.0000 C   0  0  0  0  0  0  0  0  0  0  0  0
   18.6455    0.2336    0.0000 C   0  0  0  0  0  0  0  0  0  0  0  0
   17.3330    0.9598    0.0000 O   0  0  0  0  0  0  0  0  0  0  0  0
   16.0479    0.1863    0.0000 C   0  0  0  0  0  0  0  0  0  0  0  0
   14.7354    0.9125    0.0000 C   0  0  0  0  0  0  0  0  0  0  0  0
   13.4502    0.1390    0.0000 O   0  0  0  0  0  0  0  0  0  0  0  0
   12.1377    0.8652    0.0000 C   0  0  0  0  0  0  0  0  0  0  0  0
   10.8526    0.0917    0.0000 C   0  0  0  0  0  0  0  0  0  0  0  0
    9.5401    0.8179    0.0000 O   0  0  0  0  0  0  0  0  0  0  0  0
    8.2549    0.0444    0.0000 C   0  0  0  0  0  0  0  0  0  0  0  0
    6.9424    0.7706    0.0000 C   0  0  0  0  0  0  0  0  0  0  0  0
    5.6573   -0.0029    0.0000 O   0  0  0  0  0  0  0  0  0  0  0  0
    4.3448    0.7233    0.0000 C   0  0  0  0  0  0  0  0  0  0  0  0
    3.0596   -0.0503    0.0000 C   0  0  0  0  0  0  0  0  0  0  0  0
    1.7472    0.6760    0.0000 O   0  0  0  0  0  0  0  0  0  0  0  0
    0.4620   -0.0976    0.0000 C   0  0  0  0  0  0  0  0  0  0  0  0
   -0.8505    0.6287    0.0000 C   0  0  0  0  0  0  0  0  0  0  0  0
   -2.1357   -0.1449    0.0000 O   0  0  0  0  0  0  0  0  0  0  0  0
   -3.4481    0.5814    0.0000 C   0  0  0  0  0  0  0  0  0  0  0  0
   -4.7333   -0.1922    0.0000 C   0  0  0  0  0  0  0  0  0  0  0  0
   -6.0458    0.5340    0.0000 O   0  0  0  0  0  0  0  0  0  0  0  0
   -7.3309   -0.2395    0.0000 C   0  0  0  0  0  0  0  0  0  0  0  0
   -8.6434    0.4867    0.0000 C   0  0  0  0  0  0  0  0  0  0  0  0
   -9.9286   -0.2868    0.0000 O   0  0  0  0  0  0  0  0  0  0  0  0
  -11.2411    0.4394    0.0000 C   0  0  0  0  0  0  0  0  0  0  0  0
  -12.5262   -0.3341    0.0000 C   0  0  0  0  0  0  0  0  0  0  0  0
  -13.8387    0.3921    0.0000 O   0  0  0  0  0  0  0  0  0  0  0  0
  -15.1239   -0.3814    0.0000 C   0  0  0  0  0  0  0  0  0  0  0  0
  -16.4364    0.3448    0.0000 C   0  0  0  0  0  0  0  0  0  0  0  0
  -17.7215   -0.4287    0.0000 O   0  0  0  0  0  0  0  0  0  0  0  0
  -19.0340    0.2975    0.0000 C   0  0  0  0  0  0  0  0  0  0  0  0
  -20.3192   -0.4760    0.0000 C   0  0  0  0  0  0  0  0  0  0  0  0
  -21.6316    0.2502    0.0000 O   0  0  0  0  0  0  0  0  0  0  0  0
  -22.9168   -0.5233    0.0000 C   0  0  0  0  0  0  0  0  0  0  0  0
  -24.2293    0.2029    0.0000 C   0  0  0  0  0  0  0  0  0  0  0  0
  -25.5145   -0.5707    0.0000 N   0  0  0  0  0  0  0  0  0  0  0  0
  -26.8269    0.1556    0.0000 C   0  0  0  0  0  0  0  0  0  0  0  0
  -26.8543    1.6553    0.0000 O   0  0  0  0  0  0  0  0  0  0  0  0
  -28.1121   -0.6180    0.0000 C   0  0  0  0  0  0  0  0  0  0  0  0
  -29.4246    0.1083    0.0000 C   0  0  0  0  0  0  0  0  0  0  0  0
  -30.7098   -0.6653    0.0000 C   0  0  0  0  0  0  0  0  0  0  0  0
  -32.0222    0.0609    0.0000 C   0  0  0  0  0  0  0  0  0  0  0  0
  -33.3074   -0.7126    0.0000 C   0  0  0  0  0  0  0  0  0  0  0  0
  -33.4370   -2.2070    0.0000 S   0  0  0  0  0  0  0  0  0  0  0  0
  -34.8983   -2.5455    0.0000 C   0  0  0  0  0  0  0  0  0  0  0  0
  -35.6718   -1.2603    0.0000 C   0  0  0  0  0  0  0  0  0  0  0  0
  -37.0530   -0.6753    0.0000 N   0  0  0  0  0  0  0  0  0  0  0  0
  -36.9234    0.8191    0.0000 C   0  0  0  0  0  0  0  0  0  0  0  0
  -38.0562    1.8023    0.0000 O   0  0  0  0  0  0  0  0  0  0  0  0
  -35.4621    1.1576    0.0000 N   0  0  0  0  0  0  0  0  0  0  0  0
  -34.6886   -0.1275    0.0000 C   0  0  0  0  0  0  0  0  0  0  0  0
  1  2  1  0
  2  3  2  0
  3  4  1  0
  4  5  2  0
  4  6  1  0
  6  7  1  0
  7  8  1  0
  8  9  2  0
  6 10  1  0
 10 11  2  0
 11 12  1  0
 12 13  1  0
 13 14  1  0
 14 15  1  0
 15 16  1  0
 16 17  2  0
 16 18  1  0
 18 19  1  0
 19 20  1  0
 20 21  1  0
 21 22  1  0
 22 23  1  0
 23 24  1  0
 24 25  1  0
 25 26  1  0
 26 27  1  0
 27 28  1  0
 28 29  1  0
 29 30  1  0
 30 31  1  0
 31 32  1  0
 32 33  1  0
 33 34  1  0
 34 35  1  0
 35 36  1  0
 36 37  1  0
 37 38  1  0
 38 39  1  0
 39 40  1  0
 40 41  1  0
 41 42  1  0
 42 43  1  0
 43 44  1  0
 44 45  1  0
 45 46  1  0
 46 47  1  0
 47 48  1  0
 48 49  1  0
 49 50  1  0
 50 51  1  0
 51 52  1  0
 52 53  1  0
 53 54  1  0
 54 55  1  0
 55 56  1  0
 56 57  1  0
 57 58  2  0
 57 59  1  0
 59 60  1  0
 60 61  1  0
 61 62  1  0
 63 62  1  6
 63 64  1  0
 64 65  1  0
 66 65  1  6
 66 67  1  0
 67 68  1  0
 68 69  2  0
 68 70  1  0
 71 70  1  6
 11  2  1  0
 71 63  1  0
 71 66  1  0
M  END
>  <ID>  (12) 
DST-SMART-001

>  <Name>  (12) 
SMART C REX PEG12-Biotin (Aldehyde Cytosine Probe)

>  <Primary_Group>  (12) 
4. Functionalized SMART Probes (Dynamic Chemical Labeling)

>  <Formula>  (12) 
C46H81N7O17S

>  <Molecular_Weight>  (12) 
1036.25

>  <Exact_Mass>  (12) 
1035.541

>  <IUPAC_Name>  (12) 
N-[3-[4-amino-2-oxo-1-(2-oxoethyl)pyrimidin-5-yl]propyl]-1-[5-[(3aS,4S,6aR)-2-oxo-1,3,3a,4,6,6a-hexahydrothieno[3,4-d]imidazol-4-yl]pentanoylamino]-3,6,9,12,15,18,21,24,27,30,33,36-dodecaoxanonatriacontan-39-amide

>  <SMILES>  (12) 
Nc1nc(=O)n(CC=O)cc1CCCNC(=O)CCOCCOCCOCCOCCOCCOCCOCCOCCOCCOCCOCCOCCNC(=O)CCCC[C@@H]1SC[C@@H]2NC(=O)N[C@@H]21

>  <Functional_Role>  (12) 
Flagship SMART base reagent for Dynamic Chemical Labeling (DCL). Features an N1-formylmethyl reactive aldehyde head for reversible imine condensation and reductive amination within the abasic DGL pocket, coupled via a monodisperse PEG12 spacer to D-biotin for magnetic bead capture.

>  <InChI>  (12) 
InChI=1S/C46H81N7O17S/c47-44-38(36-53(10-11-54)46(58)52-44)4-3-8-48-42(56)7-12-59-14-16-61-18-20-63-22-24-65-26-28-67-30-32-69-34-35-70-33-31-68-29-27-66-25-23-64-21-19-62-17-15-60-13-9-49-41(55)6-2-1-5-40-43-39(37-71-40)50-45(57)51-43/h11,36,39-40,43H,1-10,12-35,37H2,(H,48,56)(H,49,55)(H2,47,52,58)(H2,50,51,57)/t39-,40-,43-/m0/s1

>  <InChIKey>  (12) 
PRHUIRCHFRCMDK-RNMNAOLMSA-N

$$$$
Fmoc-AEEA-OH (Fmoc-EAAE-OH / Mini-PEG-2 Spacer)
     RDKit          2D

 28 30  0  0  0  0  0  0  0  0999 V2000
  -11.3391    1.8183    0.0000 O   0  0  0  0  0  0  0  0  0  0  0  0
  -11.4092    0.3199    0.0000 C   0  0  0  0  0  0  0  0  0  0  0  0
  -12.7418   -0.3686    0.0000 O   0  0  0  0  0  0  0  0  0  0  0  0
  -10.1466   -0.4900    0.0000 C   0  0  0  0  0  0  0  0  0  0  0  0
   -8.8139    0.1985    0.0000 O   0  0  0  0  0  0  0  0  0  0  0  0
   -7.5513   -0.6114    0.0000 C   0  0  0  0  0  0  0  0  0  0  0  0
   -6.2187    0.0771    0.0000 C   0  0  0  0  0  0  0  0  0  0  0  0
   -4.9561   -0.7328    0.0000 O   0  0  0  0  0  0  0  0  0  0  0  0
   -3.6234   -0.0443    0.0000 C   0  0  0  0  0  0  0  0  0  0  0  0
   -2.3609   -0.8541    0.0000 C   0  0  0  0  0  0  0  0  0  0  0  0
   -1.0282   -0.1657    0.0000 N   0  0  0  0  0  0  0  0  0  0  0  0
    0.2344   -0.9755    0.0000 C   0  0  0  0  0  0  0  0  0  0  0  0
    0.1643   -2.4739    0.0000 O   0  0  0  0  0  0  0  0  0  0  0  0
    1.5670   -0.2870    0.0000 O   0  0  0  0  0  0  0  0  0  0  0  0
    2.8296   -1.0969    0.0000 C   0  0  0  0  0  0  0  0  0  0  0  0
    4.1623   -0.4084    0.0000 C   0  0  0  0  0  0  0  0  0  0  0  0
    5.5026   -1.0819    0.0000 C   0  0  0  0  0  0  0  0  0  0  0  0
    5.8990   -2.5286    0.0000 C   0  0  0  0  0  0  0  0  0  0  0  0
    7.3500   -2.9087    0.0000 C   0  0  0  0  0  0  0  0  0  0  0  0
    8.4047   -1.8421    0.0000 C   0  0  0  0  0  0  0  0  0  0  0  0
    8.0083   -0.3954    0.0000 C   0  0  0  0  0  0  0  0  0  0  0  0
    6.5573   -0.0153    0.0000 C   0  0  0  0  0  0  0  0  0  0  0  0
    5.8688    1.3174    0.0000 C   0  0  0  0  0  0  0  0  0  0  0  0
    6.3985    2.7207    0.0000 C   0  0  0  0  0  0  0  0  0  0  0  0
    5.4479    3.8811    0.0000 C   0  0  0  0  0  0  0  0  0  0  0  0
    3.9678    3.6382    0.0000 C   0  0  0  0  0  0  0  0  0  0  0  0
    3.4381    2.2348    0.0000 C   0  0  0  0  0  0  0  0  0  0  0  0
    4.3886    1.0744    0.0000 C   0  0  0  0  0  0  0  0  0  0  0  0
  1  2  2  0
  2  3  1  0
  2  4  1  0
  4  5  1  0
  5  6  1  0
  6  7  1  0
  7  8  1  0
  8  9  1  0
  9 10  1  0
 10 11  1  0
 11 12  1  0
 12 13  2  0
 12 14  1  0
 14 15  1  0
 15 16  1  0
 16 17  1  0
 17 18  2  0
 18 19  1  0
 19 20  2  0
 20 21  1  0
 21 22  2  0
 22 23  1  0
 23 24  2  0
 24 25  1  0
 25 26  2  0
 26 27  1  0
 27 28  2  0
 28 16  1  0
 22 17  1  0
 28 23  1  0
M  END
>  <ID>  (13) 
DST-SPC-001

>  <Name>  (13) 
Fmoc-AEEA-OH (Fmoc-EAAE-OH / Mini-PEG-2 Spacer)

>  <Primary_Group>  (13) 
5. Linkers, Spacers & Solid Supports

>  <Formula>  (13) 
C21H23NO6

>  <Molecular_Weight>  (13) 
385.42

>  <Exact_Mass>  (13) 
385.1525

>  <IUPAC_Name>  (13) 
2-[2-[2-(9H-fluoren-9-ylmethoxycarbonylamino)ethoxy]ethoxy]acetic acid

>  <SMILES>  (13) 
O=C(O)COCCOCCNC(=O)OCC1c2ccccc2-c2ccccc21

>  <Functional_Role>  (13) 
8-amino-3,6-dioxaoctanoic acid (mini-PEG-2) spacer validated in batch DGL-260520-001 (Monomer Code: X). Separates recognition sequences from solid surfaces, fluorophores, or affinity tags.

>  <InChI>  (13) 
InChI=1S/C21H23NO6/c23-20(24)14-27-12-11-26-10-9-22-21(25)28-13-19-17-7-3-1-5-15(17)16-6-2-4-8-18(16)19/h1-8,19H,9-14H2,(H,22,25)(H,23,24)

>  <InChIKey>  (13) 
XQPYRJIMPDBGRW-UHFFFAOYSA-N

$$$$
Fmoc-Rink Amide Linker (RAM Linker)
     RDKit          2D

 41 45  0  0  0  0  0  0  0  0999 V2000
   -7.6477   -5.0696    0.0000 C   0  0  0  0  0  0  0  0  0  0  0  0
   -6.1930   -5.4351    0.0000 O   0  0  0  0  0  0  0  0  0  0  0  0
   -5.1490   -4.3580    0.0000 C   0  0  0  0  0  0  0  0  0  0  0  0
   -5.5599   -2.9153    0.0000 C   0  0  0  0  0  0  0  0  0  0  0  0
   -4.5159   -1.8382    0.0000 C   0  0  0  0  0  0  0  0  0  0  0  0
   -4.9268   -0.3956    0.0000 O   0  0  0  0  0  0  0  0  0  0  0  0
   -6.3816   -0.0301    0.0000 C   0  0  0  0  0  0  0  0  0  0  0  0
   -3.0611   -2.2037    0.0000 C   0  0  0  0  0  0  0  0  0  0  0  0
   -2.6503   -3.6464    0.0000 C   0  0  0  0  0  0  0  0  0  0  0  0
   -1.1955   -4.0119    0.0000 O   0  0  0  0  0  0  0  0  0  0  0  0
   -3.6942   -4.7235    0.0000 C   0  0  0  0  0  0  0  0  0  0  0  0
   -2.0172   -1.1266    0.0000 C   0  0  0  0  0  0  0  0  0  0  0  0
   -2.4281    0.3160    0.0000 C   0  0  0  0  0  0  0  0  0  0  0  0
   -1.3841    1.3932    0.0000 C   0  0  0  0  0  0  0  0  0  0  0  0
   -1.7950    2.8358    0.0000 C   0  0  0  0  0  0  0  0  0  0  0  0
   -3.2497    3.2013    0.0000 C   0  0  0  0  0  0  0  0  0  0  0  0
   -3.6606    4.6439    0.0000 O   0  0  0  0  0  0  0  0  0  0  0  0
   -2.6167    5.7211    0.0000 C   0  0  0  0  0  0  0  0  0  0  0  0
   -3.0275    7.1637    0.0000 C   0  0  0  0  0  0  0  0  0  0  0  0
   -4.4823    7.5292    0.0000 O   0  0  0  0  0  0  0  0  0  0  0  0
   -1.9836    8.2408    0.0000 O   0  0  0  0  0  0  0  0  0  0  0  0
   -4.2937    2.1242    0.0000 C   0  0  0  0  0  0  0  0  0  0  0  0
   -3.8828    0.6815    0.0000 C   0  0  0  0  0  0  0  0  0  0  0  0
   -0.5624   -1.4921    0.0000 N   0  0  0  0  0  0  0  0  0  0  0  0
    0.4815   -0.4150    0.0000 C   0  0  0  0  0  0  0  0  0  0  0  0
    0.0707    1.0276    0.0000 O   0  0  0  0  0  0  0  0  0  0  0  0
    1.9363   -0.7805    0.0000 O   0  0  0  0  0  0  0  0  0  0  0  0
    2.9802    0.2966    0.0000 C   0  0  0  0  0  0  0  0  0  0  0  0
    4.4350   -0.0689    0.0000 C   0  0  0  0  0  0  0  0  0  0  0  0
    5.5858    0.8932    0.0000 C   0  0  0  0  0  0  0  0  0  0  0  0
    5.6409    2.3922    0.0000 C   0  0  0  0  0  0  0  0  0  0  0  0
    6.9666    3.0940    0.0000 C   0  0  0  0  0  0  0  0  0  0  0  0
    8.2372    2.2968    0.0000 C   0  0  0  0  0  0  0  0  0  0  0  0
    8.1822    0.7978    0.0000 C   0  0  0  0  0  0  0  0  0  0  0  0
    6.8565    0.0960    0.0000 C   0  0  0  0  0  0  0  0  0  0  0  0
    6.4910   -1.3588    0.0000 C   0  0  0  0  0  0  0  0  0  0  0  0
    7.3275   -2.6038    0.0000 C   0  0  0  0  0  0  0  0  0  0  0  0
    6.6675   -3.9508    0.0000 C   0  0  0  0  0  0  0  0  0  0  0  0
    5.1710   -4.0528    0.0000 C   0  0  0  0  0  0  0  0  0  0  0  0
    4.3344   -2.8077    0.0000 C   0  0  0  0  0  0  0  0  0  0  0  0
    4.9944   -1.4607    0.0000 C   0  0  0  0  0  0  0  0  0  0  0  0
  1  2  1  0
  2  3  1  0
  3  4  1  0
  4  5  2  0
  5  6  1  0
  6  7  1  0
  5  8  1  0
  8  9  2  0
  9 10  1  0
  9 11  1  0
  8 12  1  0
 12 13  1  0
 13 14  1  0
 14 15  2  0
 15 16  1  0
 16 17  1  0
 17 18  1  0
 18 19  1  0
 19 20  2  0
 19 21  1  0
 16 22  2  0
 22 23  1  0
 12 24  1  0
 24 25  1  0
 25 26  2  0
 25 27  1  0
 27 28  1  0
 28 29  1  0
 29 30  1  0
 30 31  2  0
 31 32  1  0
 32 33  2  0
 33 34  1  0
 34 35  2  0
 35 36  1  0
 36 37  2  0
 37 38  1  0
 38 39  2  0
 39 40  1  0
 40 41  2  0
 11  3  2  0
 23 13  2  0
 41 29  1  0
 35 30  1  0
 41 36  1  0
M  END
>  <ID>  (14) 
DST-RES-001

>  <Name>  (14) 
Fmoc-Rink Amide Linker (RAM Linker)

>  <Primary_Group>  (14) 
5. Linkers, Spacers & Solid Supports

>  <Formula>  (14) 
C32H29NO8

>  <Molecular_Weight>  (14) 
555.58

>  <Exact_Mass>  (14) 
555.1893

>  <IUPAC_Name>  (14) 
2-[4-[[4-(9H-fluoren-9-ylmethoxycarbonylamino)-(2,4-dimethoxyphenyl)methyl]phenoxy]]acetic acid

>  <SMILES>  (14) 
COc1cc(OC)c(c(O)c1)C(c1ccc(OCC(=O)O)cc1)NC(=O)OCC1c2ccccc2-c2ccccc21

>  <Functional_Role>  (14) 
Acid-labile anchor on TentaGel S RAM and TentaGel XV resins (0.23 mmol/g loading), releasing C-terminal primary carboxamides (-CONH2) upon TFA cleavage.

>  <InChI>  (14) 
InChI=1S/C32H29NO8/c1-38-21-15-27(34)30(28(16-21)39-2)31(19-11-13-20(14-12-19)40-18-29(35)36)33-32(37)41-17-26-24-9-5-3-7-22(24)23-8-4-6-10-25(23)26/h3-16,26,31,34H,17-18H2,1-2H3,(H,33,37)(H,35,36)

>  <InChIKey>  (14) 
SXVALVKGJVPTGI-UHFFFAOYSA-N

$$$$
Adenosine 5'-Monophosphate (AMP / RNA Monomer A)
     RDKit          2D

 23 25  0  0  0  0  0  0  0  0999 V2000
   -6.7560    0.4445    0.0000 N   0  0  0  0  0  0  0  0  0  0  0  0
   -5.3293    0.9075    0.0000 C   0  0  0  0  0  0  0  0  0  0  0  0
   -5.0169    2.3746    0.0000 N   0  0  0  0  0  0  0  0  0  0  0  0
   -3.5901    2.8376    0.0000 C   0  0  0  0  0  0  0  0  0  0  0  0
   -2.4758    1.8335    0.0000 N   0  0  0  0  0  0  0  0  0  0  0  0
   -2.7882    0.3664    0.0000 C   0  0  0  0  0  0  0  0  0  0  0  0
   -4.2149   -0.0966    0.0000 C   0  0  0  0  0  0  0  0  0  0  0  0
   -4.2154   -1.5966    0.0000 N   0  0  0  0  0  0  0  0  0  0  0  0
   -2.7890   -2.0606    0.0000 C   0  0  0  0  0  0  0  0  0  0  0  0
   -1.9069   -0.8474    0.0000 N   0  0  0  0  0  0  0  0  0  0  0  0
   -0.4069   -0.8479    0.0000 C   0  0  0  0  0  0  0  0  0  0  0  0
    0.4752    0.3653    0.0000 O   0  0  0  0  0  0  0  0  0  0  0  0
    1.9016   -0.0988    0.0000 C   0  0  0  0  0  0  0  0  0  0  0  0
    3.1155    0.7825    0.0000 C   0  0  0  0  0  0  0  0  0  0  0  0
    4.4856    0.1719    0.0000 O   0  0  0  0  0  0  0  0  0  0  0  0
    5.6994    1.0531    0.0000 P   0  0  0  0  0  0  0  0  0  0  0  0
    6.5806   -0.1607    0.0000 O   0  0  0  0  0  0  0  0  0  0  0  0
    4.8182    2.2670    0.0000 O   0  0  0  0  0  0  0  0  0  0  0  0
    6.9132    1.9344    0.0000 O   0  0  0  0  0  0  0  0  0  0  0  0
    1.9011   -1.5988    0.0000 C   0  0  0  0  0  0  0  0  0  0  0  0
    3.1143   -2.4809    0.0000 O   0  0  0  0  0  0  0  0  0  0  0  0
    0.4743   -2.0618    0.0000 C   0  0  0  0  0  0  0  0  0  0  0  0
    0.0103   -3.4882    0.0000 O   0  0  0  0  0  0  0  0  0  0  0  0
  1  2  1  0
  2  3  1  0
  3  4  2  0
  4  5  1  0
  5  6  2  0
  6  7  1  0
  7  8  1  0
  8  9  2  0
  9 10  1  0
 11 10  1  6
 11 12  1  0
 12 13  1  0
 13 14  1  6
 14 15  1  0
 15 16  1  0
 16 17  2  0
 16 18  1  0
 16 19  1  0
 13 20  1  0
 20 21  1  1
 20 22  1  0
 22 23  1  1
  7  2  2  0
 22 11  1  0
 10  6  1  0
M  END
>  <ID>  (15) 
DST-RNA-001

>  <Name>  (15) 
Adenosine 5'-Monophosphate (AMP / RNA Monomer A)

>  <Primary_Group>  (15) 
6. Target RNA Ribomononucleotides

>  <Formula>  (15) 
C10H14N5O7P

>  <Molecular_Weight>  (15) 
347.22

>  <Exact_Mass>  (15) 
347.0631

>  <IUPAC_Name>  (15) 
[(2R,3S,4R,5R)-5-(6-aminopurin-9-yl)-3,4-dihydroxyoxolan-2-yl]methyl dihydrogen phosphate

>  <SMILES>  (15) 
Nc1ncnc2c1ncn2[C@@H]1O[C@H](COP(=O)(O)O)[C@@H](O)[C@H]1O

>  <Functional_Role>  (15) 
Target ribonucleotide unit within target viral or microRNA sequences (e.g., miR-122, miR-299-3p).

>  <InChI>  (15) 
InChI=1S/C10H14N5O7P/c11-8-5-9(13-2-12-8)15(3-14-5)10-7(17)6(16)4(22-10)1-21-23(18,19)20/h2-4,6-7,10,16-17H,1H2,(H2,11,12,13)(H2,18,19,20)/t4-,6-,7-,10-/m1/s1

>  <InChIKey>  (15) 
UDMBCSSLTHHNCD-KQYNXXCUSA-N

$$$$
Guanosine 5'-Monophosphate (GMP / RNA Monomer G)
     RDKit          2D

 24 26  0  0  0  0  0  0  0  0999 V2000
    4.6109    3.2680    0.0000 N   0  0  0  0  0  0  0  0  0  0  0  0
    4.3791    1.7860    0.0000 C   0  0  0  0  0  0  0  0  0  0  0  0
    2.9798    1.2458    0.0000 N   0  0  0  0  0  0  0  0  0  0  0  0
    2.7480   -0.2362    0.0000 C   0  0  0  0  0  0  0  0  0  0  0  0
    3.9156   -1.1779    0.0000 C   0  0  0  0  0  0  0  0  0  0  0  0
    3.3808   -2.5794    0.0000 N   0  0  0  0  0  0  0  0  0  0  0  0
    1.8827   -2.5038    0.0000 C   0  0  0  0  0  0  0  0  0  0  0  0
    1.4916   -1.0556    0.0000 N   0  0  0  0  0  0  0  0  0  0  0  0
    0.0902   -0.5208    0.0000 C   0  0  0  0  0  0  0  0  0  0  0  0
   -1.1662   -1.3402    0.0000 O   0  0  0  0  0  0  0  0  0  0  0  0
   -2.3338   -0.3985    0.0000 C   0  0  0  0  0  0  0  0  0  0  0  0
   -3.7819   -0.7895    0.0000 C   0  0  0  0  0  0  0  0  0  0  0  0
   -4.8446    0.2691    0.0000 O   0  0  0  0  0  0  0  0  0  0  0  0
   -6.2927   -0.1219    0.0000 P   0  0  0  0  0  0  0  0  0  0  0  0
   -6.6838    1.3262    0.0000 O   0  0  0  0  0  0  0  0  0  0  0  0
   -5.9017   -1.5701    0.0000 O   0  0  0  0  0  0  0  0  0  0  0  0
   -7.7409   -0.5130    0.0000 O   0  0  0  0  0  0  0  0  0  0  0  0
   -1.7989    1.0029    0.0000 C   0  0  0  0  0  0  0  0  0  0  0  0
   -2.6183    2.2594    0.0000 O   0  0  0  0  0  0  0  0  0  0  0  0
   -0.3008    0.9273    0.0000 C   0  0  0  0  0  0  0  0  0  0  0  0
    0.6409    2.0949    0.0000 O   0  0  0  0  0  0  0  0  0  0  0  0
    5.3149   -0.6377    0.0000 C   0  0  0  0  0  0  0  0  0  0  0  0
    6.4825   -1.5794    0.0000 O   0  0  0  0  0  0  0  0  0  0  0  0
    5.5467    0.8443    0.0000 N   0  0  0  0  0  0  0  0  0  0  0  0
  1  2  1  0
  2  3  2  0
  3  4  1  0
  4  5  2  0
  5  6  1  0
  6  7  2  0
  7  8  1  0
  9  8  1  6
  9 10  1  0
 10 11  1  0
 11 12  1  6
 12 13  1  0
 13 14  1  0
 14 15  2  0
 14 16  1  0
 14 17  1  0
 11 18  1  0
 18 19  1  1
 18 20  1  0
 20 21  1  1
  5 22  1  0
 22 23  2  0
 22 24  1  0
 24  2  1  0
  8  4  1  0
 20  9  1  0
M  END
>  <ID>  (16) 
DST-RNA-002

>  <Name>  (16) 
Guanosine 5'-Monophosphate (GMP / RNA Monomer G)

>  <Primary_Group>  (16) 
6. Target RNA Ribomononucleotides

>  <Formula>  (16) 
C10H14N5O8P

>  <Molecular_Weight>  (16) 
363.22

>  <Exact_Mass>  (16) 
363.058

>  <IUPAC_Name>  (16) 
[(2R,3S,4R,5R)-5-(2-amino-6-oxo-1H-purin-9-yl)-3,4-dihydroxyoxolan-2-yl]methyl dihydrogen phosphate

>  <SMILES>  (16) 
Nc1nc2c(ncn2[C@@H]2O[C@H](COP(=O)(O)O)[C@@H](O)[C@H]2O)c(=O)[nH]1

>  <Functional_Role>  (16) 
Target ribonucleotide unit within RNA targets pairing with Destina Cytosine SMART probes.

>  <InChI>  (16) 
InChI=1S/C10H14N5O8P/c11-10-13-7-4(8(18)14-10)12-2-15(7)9-6(17)5(16)3(23-9)1-22-24(19,20)21/h2-3,5-6,9,16-17H,1H2,(H2,19,20,21)(H3,11,13,14,18)/t3-,5-,6-,9-/m1/s1

>  <InChIKey>  (16) 
RQFCJASXJCIDSX-UUOKFMHZSA-N

$$$$
Cytidine 5'-Monophosphate (CMP / RNA Monomer C)
     RDKit          2D

 21 22  0  0  0  0  0  0  0  0999 V2000
    6.7922   -1.2241    0.0000 N   0  0  0  0  0  0  0  0  0  0  0  0
    5.3244   -0.9146    0.0000 C   0  0  0  0  0  0  0  0  0  0  0  0
    4.3225   -2.0309    0.0000 C   0  0  0  0  0  0  0  0  0  0  0  0
    2.8548   -1.7214    0.0000 C   0  0  0  0  0  0  0  0  0  0  0  0
    2.3890   -0.2956    0.0000 N   0  0  0  0  0  0  0  0  0  0  0  0
    0.9213    0.0139    0.0000 C   0  0  0  0  0  0  0  0  0  0  0  0
   -0.1918   -0.9916    0.0000 O   0  0  0  0  0  0  0  0  0  0  0  0
   -1.4921   -0.2437    0.0000 C   0  0  0  0  0  0  0  0  0  0  0  0
   -2.8614   -0.8560    0.0000 C   0  0  0  0  0  0  0  0  0  0  0  0
   -4.0764    0.0237    0.0000 O   0  0  0  0  0  0  0  0  0  0  0  0
   -5.4457   -0.5886    0.0000 P   0  0  0  0  0  0  0  0  0  0  0  0
   -6.0580    0.7808    0.0000 O   0  0  0  0  0  0  0  0  0  0  0  0
   -4.8334   -1.9579    0.0000 O   0  0  0  0  0  0  0  0  0  0  0  0
   -6.8150   -1.2009    0.0000 O   0  0  0  0  0  0  0  0  0  0  0  0
   -1.1826    1.2241    0.0000 C   0  0  0  0  0  0  0  0  0  0  0  0
   -2.1881    2.3372    0.0000 O   0  0  0  0  0  0  0  0  0  0  0  0
    0.3089    1.3833    0.0000 C   0  0  0  0  0  0  0  0  0  0  0  0
    1.0568    2.6835    0.0000 O   0  0  0  0  0  0  0  0  0  0  0  0
    3.3909    0.8208    0.0000 C   0  0  0  0  0  0  0  0  0  0  0  0
    2.9250    2.2466    0.0000 O   0  0  0  0  0  0  0  0  0  0  0  0
    4.8586    0.5113    0.0000 N   0  0  0  0  0  0  0  0  0  0  0  0
  1  2  1  0
  2  3  1  0
  3  4  2  0
  4  5  1  0
  6  5  1  6
  6  7  1  0
  7  8  1  0
  8  9  1  6
  9 10  1  0
 10 11  1  0
 11 12  2  0
 11 13  1  0
 11 14  1  0
  8 15  1  0
 15 16  1  1
 15 17  1  0
 17 18  1  1
  5 19  1  0
 19 20  2  0
 19 21  1  0
 21  2  2  0
 17  6  1  0
M  END
>  <ID>  (17) 
DST-RNA-003

>  <Name>  (17) 
Cytidine 5'-Monophosphate (CMP / RNA Monomer C)

>  <Primary_Group>  (17) 
6. Target RNA Ribomononucleotides

>  <Formula>  (17) 
C9H14N3O8P

>  <Molecular_Weight>  (17) 
323.2

>  <Exact_Mass>  (17) 
323.0519

>  <IUPAC_Name>  (17) 
[(2R,3S,4R,5R)-5-(4-amino-2-oxopyrimidin-1-yl)-3,4-dihydroxyoxolan-2-yl]methyl dihydrogen phosphate

>  <SMILES>  (17) 
Nc1ccn([C@@H]2O[C@H](COP(=O)(O)O)[C@@H](O)[C@H]2O)c(=O)n1

>  <Functional_Role>  (17) 
Target ribonucleotide unit pairing with Guanine SMART probes for single-base resolution.

>  <InChI>  (17) 
InChI=1S/C9H14N3O8P/c10-5-1-2-12(9(15)11-5)8-7(14)6(13)4(20-8)3-19-21(16,17)18/h1-2,4,6-8,13-14H,3H2,(H2,10,11,15)(H2,16,17,18)/t4-,6-,7-,8-/m1/s1

>  <InChIKey>  (17) 
IERHLVCPSMICTF-XVFCMESISA-N

$$$$
Uridine 5'-Monophosphate (UMP / RNA Monomer U)
     RDKit          2D

 21 22  0  0  0  0  0  0  0  0999 V2000
    6.7922   -1.2241    0.0000 O   0  0  0  0  0  0  0  0  0  0  0  0
    5.3244   -0.9146    0.0000 C   0  0  0  0  0  0  0  0  0  0  0  0
    4.3225   -2.0309    0.0000 C   0  0  0  0  0  0  0  0  0  0  0  0
    2.8548   -1.7214    0.0000 C   0  0  0  0  0  0  0  0  0  0  0  0
    2.3890   -0.2956    0.0000 N   0  0  0  0  0  0  0  0  0  0  0  0
    0.9213    0.0139    0.0000 C   0  0  0  0  0  0  0  0  0  0  0  0
   -0.1918   -0.9916    0.0000 O   0  0  0  0  0  0  0  0  0  0  0  0
   -1.4921   -0.2437    0.0000 C   0  0  0  0  0  0  0  0  0  0  0  0
   -2.8614   -0.8560    0.0000 C   0  0  0  0  0  0  0  0  0  0  0  0
   -4.0764    0.0237    0.0000 O   0  0  0  0  0  0  0  0  0  0  0  0
   -5.4457   -0.5886    0.0000 P   0  0  0  0  0  0  0  0  0  0  0  0
   -6.0580    0.7808    0.0000 O   0  0  0  0  0  0  0  0  0  0  0  0
   -4.8334   -1.9579    0.0000 O   0  0  0  0  0  0  0  0  0  0  0  0
   -6.8150   -1.2009    0.0000 O   0  0  0  0  0  0  0  0  0  0  0  0
   -1.1826    1.2241    0.0000 C   0  0  0  0  0  0  0  0  0  0  0  0
   -2.1881    2.3372    0.0000 O   0  0  0  0  0  0  0  0  0  0  0  0
    0.3089    1.3833    0.0000 C   0  0  0  0  0  0  0  0  0  0  0  0
    1.0568    2.6835    0.0000 O   0  0  0  0  0  0  0  0  0  0  0  0
    3.3909    0.8208    0.0000 C   0  0  0  0  0  0  0  0  0  0  0  0
    2.9250    2.2466    0.0000 O   0  0  0  0  0  0  0  0  0  0  0  0
    4.8586    0.5113    0.0000 N   0  0  0  0  0  0  0  0  0  0  0  0
  1  2  2  0
  2  3  1  0
  3  4  2  0
  4  5  1  0
  6  5  1  6
  6  7  1  0
  7  8  1  0
  8  9  1  6
  9 10  1  0
 10 11  1  0
 11 12  2  0
 11 13  1  0
 11 14  1  0
  8 15  1  0
 15 16  1  1
 15 17  1  0
 17 18  1  1
  5 19  1  0
 19 20  2  0
 19 21  1  0
 21  2  1  0
 17  6  1  0
M  END
>  <ID>  (18) 
DST-RNA-004

>  <Name>  (18) 
Uridine 5'-Monophosphate (UMP / RNA Monomer U)

>  <Primary_Group>  (18) 
6. Target RNA Ribomononucleotides

>  <Formula>  (18) 
C9H13N2O9P

>  <Molecular_Weight>  (18) 
324.18

>  <Exact_Mass>  (18) 
324.0359

>  <IUPAC_Name>  (18) 
[(2R,3S,4R,5R)-5-(2,4-dioxopyrimidin-1-yl)-3,4-dihydroxyoxolan-2-yl]methyl dihydrogen phosphate

>  <SMILES>  (18) 
O=c1ccn([C@@H]2O[C@H](COP(=O)(O)O)[C@@H](O)[C@H]2O)c(=O)[nH]1

>  <Functional_Role>  (18) 
Target ribonucleotide unit pairing with Adenine SMART probes for single-base discrimination.

>  <InChI>  (18) 
InChI=1S/C9H13N2O9P/c12-5-1-2-11(9(15)10-5)8-7(14)6(13)4(20-8)3-19-21(16,17)18/h1-2,4,6-8,13-14H,3H2,(H,10,12,15)(H2,16,17,18)/t4-,6-,7-,8-/m1/s1

>  <InChIKey>  (18) 
DJJCXFVJDGTHFX-XVFCMESISA-N

$$$$
Oxyma Pure (Coupling Activator)
     RDKit          2D

 10  9  0  0  0  0  0  0  0  0999 V2000
    4.2589    0.5376    0.0000 C   0  0  0  0  0  0  0  0  0  0  0  0
    3.0182   -0.3053    0.0000 C   0  0  0  0  0  0  0  0  0  0  0  0
    1.6678    0.3478    0.0000 O   0  0  0  0  0  0  0  0  0  0  0  0
    0.4270   -0.4951    0.0000 C   0  0  0  0  0  0  0  0  0  0  0  0
    0.5366   -1.9911    0.0000 O   0  0  0  0  0  0  0  0  0  0  0  0
   -0.9233    0.1580    0.0000 C   0  0  0  0  0  0  0  0  0  0  0  0
   -2.1641   -0.6849    0.0000 C   0  0  0  0  0  0  0  0  0  0  0  0
   -3.4049   -1.5278    0.0000 N   0  0  0  0  0  0  0  0  0  0  0  0
   -1.0329    1.6540    0.0000 N   0  0  0  0  0  0  0  0  0  0  0  0
   -2.3833    2.3070    0.0000 O   0  0  0  0  0  0  0  0  0  0  0  0
  1  2  1  0
  2  3  1  0
  3  4  1  0
  4  5  2  0
  4  6  1  0
  6  7  1  0
  7  8  3  0
  6  9  2  3
  9 10  1  0
M  END
>  <ID>  (19) 
DST-REA-001

>  <Name>  (19) 
Oxyma Pure (Coupling Activator)

>  <Primary_Group>  (19) 
7. Solid-Phase Coupling, Activation & Capping Reagents

>  <Formula>  (19) 
C5H6N2O3

>  <Molecular_Weight>  (19) 
142.11

>  <Exact_Mass>  (19) 
142.0378

>  <IUPAC_Name>  (19) 
Ethyl 2-cyano-2-hydroxyiminoacetate

>  <SMILES>  (19) 
CCOC(=O)C(C#N)=NO

>  <Functional_Role>  (19) 
Solution 3 (1.0 M in NMP). Non-explosive racemization suppressant forming highly reactive active esters with carboxylic acids.

>  <InChI>  (19) 
InChI=1S/C5H6N2O3/c1-2-10-5(8)4(3-6)7-9/h9H,2H2,1H3/b7-4+

>  <InChIKey>  (19) 
LCFXLZAXGXOXAP-QPJJXVBHSA-N

$$$$
DIC (N,N'-Diisopropylcarbodiimide)
     RDKit          2D

  9  8  0  0  0  0  0  0  0  0999 V2000
   -3.7500   -0.1443    0.0000 C   0  0  0  0  0  0  0  0  0  0  0  0
   -2.2500   -0.1443    0.0000 C   0  0  0  0  0  0  0  0  0  0  0  0
   -1.5000   -1.4434    0.0000 C   0  0  0  0  0  0  0  0  0  0  0  0
   -1.5000    1.1547    0.0000 N   0  0  0  0  0  0  0  0  0  0  0  0
   -0.0000    1.1547    0.0000 C   0  0  0  0  0  0  0  0  0  0  0  0
    1.5000    1.1547    0.0000 N   0  0  0  0  0  0  0  0  0  0  0  0
    2.2500   -0.1443    0.0000 C   0  0  0  0  0  0  0  0  0  0  0  0
    3.7500   -0.1443    0.0000 C   0  0  0  0  0  0  0  0  0  0  0  0
    1.5000   -1.4434    0.0000 C   0  0  0  0  0  0  0  0  0  0  0  0
  1  2  1  0
  2  3  1  0
  2  4  1  0
  4  5  2  0
  5  6  2  0
  6  7  1  0
  7  8  1  0
  7  9  1  0
M  END
>  <ID>  (20) 
DST-REA-002

>  <Name>  (20) 
DIC (N,N'-Diisopropylcarbodiimide)

>  <Primary_Group>  (20) 
7. Solid-Phase Coupling, Activation & Capping Reagents

>  <Formula>  (20) 
C7H14N2

>  <Molecular_Weight>  (20) 
126.2

>  <Exact_Mass>  (20) 
126.1157

>  <IUPAC_Name>  (20) 
N,N'-diisopropylcarbodiimide

>  <SMILES>  (20) 
CC(C)N=C=NC(C)C

>  <Functional_Role>  (20) 
Solution 4 (1.0 M in NMP). Primary carbodiimide coupling agent generating O-acylisoureas for fast peptide and PNA bond formation.

>  <InChI>  (20) 
InChI=1S/C7H14N2/c1-6(2)8-5-9-7(3)4/h6-7H,1-4H3

>  <InChIKey>  (20) 
BDNKZNFMNDZQMI-UHFFFAOYSA-N

$$$$
Piperidine
     RDKit          2D

  6  6  0  0  0  0  0  0  0  0999 V2000
    1.5000    0.0000    0.0000 C   0  0  0  0  0  0  0  0  0  0  0  0
    0.7500   -1.2990    0.0000 C   0  0  0  0  0  0  0  0  0  0  0  0
   -0.7500   -1.2990    0.0000 C   0  0  0  0  0  0  0  0  0  0  0  0
   -1.5000    0.0000    0.0000 N   0  0  0  0  0  0  0  0  0  0  0  0
   -0.7500    1.2990    0.0000 C   0  0  0  0  0  0  0  0  0  0  0  0
    0.7500    1.2990    0.0000 C   0  0  0  0  0  0  0  0  0  0  0  0
  1  2  1  0
  2  3  1  0
  3  4  1  0
  4  5  1  0
  5  6  1  0
  6  1  1  0
M  END
>  <ID>  (21) 
DST-REA-003

>  <Name>  (21) 
Piperidine

>  <Primary_Group>  (21) 
7. Solid-Phase Coupling, Activation & Capping Reagents

>  <Formula>  (21) 
C5H11N

>  <Molecular_Weight>  (21) 
85.15

>  <Exact_Mass>  (21) 
85.0891

>  <IUPAC_Name>  (21) 
Piperidine (Hexahydropyridine)

>  <SMILES>  (21) 
C1CCNCC1

>  <Functional_Role>  (21) 
Secondary amine base used at 20 % v/v in DMF for cyclic Fmoc deprotection via E1cb proton abstraction.

>  <InChI>  (21) 
InChI=1S/C5H11N/c1-2-4-6-5-3-1/h6H,1-5H2

>  <InChIKey>  (21) 
NQRYJNQNLNOLGT-UHFFFAOYSA-N

$$$$
2,6-Lutidine
     RDKit          2D

  8  8  0  0  0  0  0  0  0  0999 V2000
   -2.5981   -1.1250    0.0000 C   0  0  0  0  0  0  0  0  0  0  0  0
   -1.2990   -0.3750    0.0000 C   0  0  0  0  0  0  0  0  0  0  0  0
   -1.2990    1.1250    0.0000 C   0  0  0  0  0  0  0  0  0  0  0  0
    0.0000    1.8750    0.0000 C   0  0  0  0  0  0  0  0  0  0  0  0
    1.2990    1.1250    0.0000 C   0  0  0  0  0  0  0  0  0  0  0  0
    1.2990   -0.3750    0.0000 C   0  0  0  0  0  0  0  0  0  0  0  0
    2.5981   -1.1250    0.0000 C   0  0  0  0  0  0  0  0  0  0  0  0
   -0.0000   -1.1250    0.0000 N   0  0  0  0  0  0  0  0  0  0  0  0
  1  2  1  0
  2  3  1  0
  3  4  2  0
  4  5  1  0
  5  6  2  0
  6  7  1  0
  6  8  1  0
  8  2  2  0
M  END
>  <ID>  (22) 
DST-REA-004

>  <Name>  (22) 
2,6-Lutidine

>  <Primary_Group>  (22) 
7. Solid-Phase Coupling, Activation & Capping Reagents

>  <Formula>  (22) 
C7H9N

>  <Molecular_Weight>  (22) 
107.16

>  <Exact_Mass>  (22) 
107.0735

>  <IUPAC_Name>  (22) 
2,6-dimethylpyridine

>  <SMILES>  (22) 
Cc1cccc(C)n1

>  <Functional_Role>  (22) 
Sterically hindered organic base in Capping mixture (Solution 5, 5 % v/v with Ac2O in DMF) ensuring selective amine neutralization.

>  <InChI>  (22) 
InChI=1S/C7H9N/c1-6-4-3-5-7(2)8-6/h3-5H,1-2H3

>  <InChIKey>  (22) 
OISVCGZHLKNMSJ-UHFFFAOYSA-N

$$$$
Acetic Anhydride (Ac₂O)
     RDKit          2D

  7  6  0  0  0  0  0  0  0  0999 V2000
   -2.5981    0.8571    0.0000 C   0  0  0  0  0  0  0  0  0  0  0  0
   -1.2990    0.1071    0.0000 C   0  0  0  0  0  0  0  0  0  0  0  0
   -1.2990   -1.3929    0.0000 O   0  0  0  0  0  0  0  0  0  0  0  0
    0.0000    0.8571    0.0000 O   0  0  0  0  0  0  0  0  0  0  0  0
    1.2990    0.1071    0.0000 C   0  0  0  0  0  0  0  0  0  0  0  0
    2.5981    0.8571    0.0000 C   0  0  0  0  0  0  0  0  0  0  0  0
    1.2990   -1.3929    0.0000 O   0  0  0  0  0  0  0  0  0  0  0  0
  1  2  1  0
  2  3  2  0
  2  4  1  0
  4  5  1  0
  5  6  1  0
  5  7  2  0
M  END
>  <ID>  (23) 
DST-REA-005

>  <Name>  (23) 
Acetic Anhydride (Ac₂O)

>  <Primary_Group>  (23) 
7. Solid-Phase Coupling, Activation & Capping Reagents

>  <Formula>  (23) 
C4H6O3

>  <Molecular_Weight>  (23) 
102.09

>  <Exact_Mass>  (23) 
102.0317

>  <IUPAC_Name>  (23) 
Acetic anhydride

>  <SMILES>  (23) 
CC(=O)OC(C)=O

>  <Functional_Role>  (23) 
Irreversible N-acetylating agent in Capping mixture (Solution 5, 5 % v/v in DMF) terminating unreacted failure sequences.

>  <InChI>  (23) 
InChI=1S/C4H6O3/c1-3(5)7-4(2)6/h1-2H3

>  <InChIKey>  (23) 
WFDIJRYMOXRFFG-UHFFFAOYSA-N

$$$$
Trifluoroacetic Acid (TFA)
     RDKit          2D

  7  6  0  0  0  0  0  0  0  0999 V2000
   -1.6071   -1.2990    0.0000 O   0  0  0  0  0  0  0  0  0  0  0  0
   -0.8571    0.0000    0.0000 C   0  0  0  0  0  0  0  0  0  0  0  0
   -1.6071    1.2990    0.0000 O   0  0  0  0  0  0  0  0  0  0  0  0
    0.6429   -0.0000    0.0000 C   0  0  0  0  0  0  0  0  0  0  0  0
    2.1429    0.0000    0.0000 F   0  0  0  0  0  0  0  0  0  0  0  0
    0.6429   -1.5000    0.0000 F   0  0  0  0  0  0  0  0  0  0  0  0
    0.6429    1.5000    0.0000 F   0  0  0  0  0  0  0  0  0  0  0  0
  1  2  2  0
  2  3  1  0
  2  4  1  0
  4  5  1  0
  4  6  1  0
  4  7  1  0
M  END
>  <ID>  (24) 
DST-CLV-001

>  <Name>  (24) 
Trifluoroacetic Acid (TFA)

>  <Primary_Group>  (24) 
8. Cleavage Cocktails, Scavengers & Peptides

>  <Formula>  (24) 
C2HF3O2

>  <Molecular_Weight>  (24) 
114.02

>  <Exact_Mass>  (24) 
113.9929

>  <IUPAC_Name>  (24) 
2,2,2-trifluoroacetic acid

>  <SMILES>  (24) 
O=C(O)C(F)(F)F

>  <Functional_Role>  (24) 
Strong organic acid (92.5 % in Solution 9) cleaving the Rink Amide resin-probe bond and deprotecting Bhoc/Pbf/tBu; also used at 0.1 % v/v as ion-pairing mobile phase modifier in RP-HPLC.

>  <InChI>  (24) 
InChI=1S/C2HF3O2/c3-2(4,5)1(6)7/h(H,6,7)

>  <InChIKey>  (24) 
DTQVDTLACAAQTR-UHFFFAOYSA-N

$$$$
Triisopropylsilane (TIS)
     RDKit          2D

 10  9  0  0  0  0  0  0  0  0999 V2000
   -1.2990   -2.2500    0.0000 C   0  0  0  0  0  0  0  0  0  0  0  0
    0.0000   -1.5000    0.0000 C   0  0  0  0  0  0  0  0  0  0  0  0
    1.2990   -2.2500    0.0000 C   0  0  0  0  0  0  0  0  0  0  0  0
    0.0000    0.0000    0.0000 Si  0  0  0  0  0  4  0  0  0  0  0  0
    1.2990    0.7500    0.0000 C   0  0  0  0  0  0  0  0  0  0  0  0
    1.2990    2.2500    0.0000 C   0  0  0  0  0  0  0  0  0  0  0  0
    2.5981    0.0000    0.0000 C   0  0  0  0  0  0  0  0  0  0  0  0
   -1.2990    0.7500    0.0000 C   0  0  0  0  0  0  0  0  0  0  0  0
   -1.2990    2.2500    0.0000 C   0  0  0  0  0  0  0  0  0  0  0  0
   -2.5981    0.0000    0.0000 C   0  0  0  0  0  0  0  0  0  0  0  0
  1  2  1  0
  2  3  1  0
  2  4  1  0
  4  5  1  0
  5  6  1  0
  5  7  1  0
  4  8  1  0
  8  9  1  0
  8 10  1  0
M  END
>  <ID>  (25) 
DST-CLV-002

>  <Name>  (25) 
Triisopropylsilane (TIS)

>  <Primary_Group>  (25) 
8. Cleavage Cocktails, Scavengers & Peptides

>  <Formula>  (25) 
C9H22Si

>  <Molecular_Weight>  (25) 
158.36

>  <Exact_Mass>  (25) 
158.1491

>  <IUPAC_Name>  (25) 
Tri(propan-2-yl)silane

>  <SMILES>  (25) 
CC(C)[SiH](C(C)C)C(C)C

>  <Functional_Role>  (25) 
High-efficiency carbocation scavenger (5.0 % in Solution 9) quenching reactive tBu+, Bhoc+, and Pbf+ cations.

>  <InChI>  (25) 
InChI=1S/C9H22Si/c1-7(2)10(8(3)4)9(5)6/h7-10H,1-6H3

>  <InChIKey>  (25) 
YDJXDYKQMRNUSA-UHFFFAOYSA-N

$$$$
Water (Milli-Q Grade)
     RDKit          2D

  1  0  0  0  0  0  0  0  0  0999 V2000
    0.0000    0.0000    0.0000 O   0  0  0  0  0  0  0  0  0  0  0  0
M  END
>  <ID>  (26) 
DST-CLV-003

>  <Name>  (26) 
Water (Milli-Q Grade)

>  <Primary_Group>  (26) 
8. Cleavage Cocktails, Scavengers & Peptides

>  <Formula>  (26) 
H2O

>  <Molecular_Weight>  (26) 
18.02

>  <Exact_Mass>  (26) 
18.0106

>  <IUPAC_Name>  (26) 
Oxidane

>  <SMILES>  (26) 
O

>  <Functional_Role>  (26) 
Protic co-scavenger in cleavage cocktail (2.5 %), aqueous mobile phase Canal C (Water + 0.1 % TFA), and primary reconstitution solvent.

>  <InChI>  (26) 
InChI=1S/H2O/h1H2

>  <InChIKey>  (26) 
XLYOFNOQVPJJNP-UHFFFAOYSA-N

$$$$
Diethyl Ether
     RDKit          2D

  5  4  0  0  0  0  0  0  0  0999 V2000
   -2.5981   -0.3000    0.0000 C   0  0  0  0  0  0  0  0  0  0  0  0
   -1.2990    0.4500    0.0000 C   0  0  0  0  0  0  0  0  0  0  0  0
    0.0000   -0.3000    0.0000 O   0  0  0  0  0  0  0  0  0  0  0  0
    1.2990    0.4500    0.0000 C   0  0  0  0  0  0  0  0  0  0  0  0
    2.5981   -0.3000    0.0000 C   0  0  0  0  0  0  0  0  0  0  0  0
  1  2  1  0
  2  3  1  0
  3  4  1  0
  4  5  1  0
M  END
>  <ID>  (27) 
DST-CLV-004

>  <Name>  (27) 
Diethyl Ether

>  <Primary_Group>  (27) 
8. Cleavage Cocktails, Scavengers & Peptides

>  <Formula>  (27) 
C4H10O

>  <Molecular_Weight>  (27) 
74.12

>  <Exact_Mass>  (27) 
74.0732

>  <IUPAC_Name>  (27) 
Ethoxyethane

>  <SMILES>  (27) 
CCOCC

>  <Functional_Role>  (27) 
Non-polar precipitation anti-solvent pre-chilled to -20 °C (1.5 mL x 2) for quantitative precipitation and washing of the crude PNA pellet.

>  <InChI>  (27) 
InChI=1S/C4H10O/c1-3-5-4-2/h3-4H2,1-2H3

>  <InChIKey>  (27) 
RTZKZFJDLAIYFH-UHFFFAOYSA-N

$$$$
Fmoc-L-Arg(Pbf)-OH (Protected L-Arginine)
     RDKit          2D

 46 50  0  0  0  0  0  0  0  0999 V2000
   -9.0672    4.6015    0.0000 C   0  0  0  0  0  0  0  0  0  0  0  0
   -8.8772    3.1135    0.0000 C   0  0  0  0  0  0  0  0  0  0  0  0
  -10.0707    2.2050    0.0000 C   0  0  0  0  0  0  0  0  0  0  0  0
  -11.4543    2.7844    0.0000 C   0  0  0  0  0  0  0  0  0  0  0  0
   -9.8807    0.7171    0.0000 C   0  0  0  0  0  0  0  0  0  0  0  0
   -8.4971    0.1377    0.0000 C   0  0  0  0  0  0  0  0  0  0  0  0
   -7.3036    1.0462    0.0000 C   0  0  0  0  0  0  0  0  0  0  0  0
   -5.9200    0.4668    0.0000 S   0  0  0  0  0  0  0  0  0  0  0  0
   -6.4994   -0.9168    0.0000 O   0  0  0  0  0  0  0  0  0  0  0  0
   -5.3406    1.8504    0.0000 O   0  0  0  0  0  0  0  0  0  0  0  0
   -4.5364   -0.1126    0.0000 N   0  0  0  0  0  0  0  0  0  0  0  0
   -4.3464   -1.6005    0.0000 C   0  0  0  0  0  0  0  0  0  0  0  0
   -5.5400   -2.5090    0.0000 N   0  0  0  0  0  0  0  0  0  0  0  0
   -2.9628   -2.1799    0.0000 N   0  0  0  0  0  0  0  0  0  0  0  0
   -1.7693   -1.2714    0.0000 C   0  0  0  0  0  0  0  0  0  0  0  0
   -0.3857   -1.8508    0.0000 C   0  0  0  0  0  0  0  0  0  0  0  0
    0.8079   -0.9423    0.0000 C   0  0  0  0  0  0  0  0  0  0  0  0
    2.1915   -1.5217    0.0000 C   0  0  0  0  0  0  0  0  0  0  0  0
    3.3850   -0.6132    0.0000 N   0  0  0  0  0  0  0  0  0  0  0  0
    4.7686   -1.1926    0.0000 C   0  0  0  0  0  0  0  0  0  0  0  0
    4.9586   -2.6805    0.0000 O   0  0  0  0  0  0  0  0  0  0  0  0
    5.9622   -0.2841    0.0000 O   0  0  0  0  0  0  0  0  0  0  0  0
    7.3458   -0.8635    0.0000 C   0  0  0  0  0  0  0  0  0  0  0  0
    8.5393    0.0450    0.0000 C   0  0  0  0  0  0  0  0  0  0  0  0
    9.9759   -0.3866    0.0000 C   0  0  0  0  0  0  0  0  0  0  0  0
   10.6164   -1.7430    0.0000 C   0  0  0  0  0  0  0  0  0  0  0  0
   12.1113   -1.8665    0.0000 C   0  0  0  0  0  0  0  0  0  0  0  0
   12.9657   -0.6336    0.0000 C   0  0  0  0  0  0  0  0  0  0  0  0
   12.3252    0.7228    0.0000 C   0  0  0  0  0  0  0  0  0  0  0  0
   10.8303    0.8463    0.0000 C   0  0  0  0  0  0  0  0  0  0  0  0
    9.9218    2.0398    0.0000 C   0  0  0  0  0  0  0  0  0  0  0  0
   10.2009    3.5136    0.0000 C   0  0  0  0  0  0  0  0  0  0  0  0
    9.0641    4.4922    0.0000 C   0  0  0  0  0  0  0  0  0  0  0  0
    7.6482    3.9970    0.0000 C   0  0  0  0  0  0  0  0  0  0  0  0
    7.3691    2.5232    0.0000 C   0  0  0  0  0  0  0  0  0  0  0  0
    8.5059    1.5446    0.0000 C   0  0  0  0  0  0  0  0  0  0  0  0
    2.3815   -3.0096    0.0000 C   0  0  0  0  0  0  0  0  0  0  0  0
    3.7650   -3.5890    0.0000 O   0  0  0  0  0  0  0  0  0  0  0  0
    1.1879   -3.9181    0.0000 O   0  0  0  0  0  0  0  0  0  0  0  0
   -7.4936    2.5341    0.0000 C   0  0  0  0  0  0  0  0  0  0  0  0
   -6.3000    3.4426    0.0000 C   0  0  0  0  0  0  0  0  0  0  0  0
   -8.6206   -1.3572    0.0000 O   0  0  0  0  0  0  0  0  0  0  0  0
  -10.0806   -1.7017    0.0000 C   0  0  0  0  0  0  0  0  0  0  0  0
   -9.5853   -3.1176    0.0000 C   0  0  0  0  0  0  0  0  0  0  0  0
  -11.4369   -2.3422    0.0000 C   0  0  0  0  0  0  0  0  0  0  0  0
  -10.8593   -0.4197    0.0000 C   0  0  0  0  0  0  0  0  0  0  0  0
  1  2  1  0
  2  3  2  0
  3  4  1  0
  3  5  1  0
  5  6  2  0
  6  7  1  0
  7  8  1  0
  8  9  2  0
  8 10  2  0
  8 11  1  0
 11 12  1  0
 12 13  2  0
 12 14  1  0
 14 15  1  0
 15 16  1  0
 16 17  1  0
 17 18  1  0
 18 19  1  0
 19 20  1  0
 20 21  2  0
 20 22  1  0
 22 23  1  0
 23 24  1  0
 24 25  1  0
 25 26  2  0
 26 27  1  0
 27 28  2  0
 28 29  1  0
 29 30  2  0
 30 31  1  0
 31 32  2  0
 32 33  1  0
 33 34  2  0
 34 35  1  0
 35 36  2  0
 18 37  1  0
 37 38  2  0
 37 39  1  0
  7 40  2  0
 40 41  1  0
  6 42  1  0
 42 43  1  0
 43 44  1  0
 43 45  1  0
 43 46  1  0
 40  2  1  0
 46  5  1  0
 36 24  1  0
 30 25  1  0
 36 31  1  0
M  END
>  <ID>  (28) 
DST-PEP-001

>  <Name>  (28) 
Fmoc-L-Arg(Pbf)-OH (Protected L-Arginine)

>  <Primary_Group>  (28) 
8. Cleavage Cocktails, Scavengers & Peptides

>  <Formula>  (28) 
C34H40N4O7S

>  <Molecular_Weight>  (28) 
648.78

>  <Exact_Mass>  (28) 
648.2618

>  <IUPAC_Name>  (28) 
(2S)-2-(9H-fluoren-9-ylmethoxycarbonylamino)-5-[[N-(2,2,4,6,7-pentamethyl-3H-1-benzofuran-5-yl)sulfonylcarbamimidoyl]amino]pentanoic acid

>  <SMILES>  (28) 
Cc1c(C)c2c(c(S(=O)(=O)NC(=N)NCCCC(NC(=O)OCC3c4ccccc4-c4ccccc43)C(=O)O)c1C)OC(C)(C)C2

>  <Functional_Role>  (28) 
Cationic peptide monomer specified in standard cleavage protocols due to the 3-hour acidic exposure requirement for quantitative Pbf deprotection.

>  <InChI>  (28) 
InChI=1S/C34H40N4O7S/c1-19-20(2)26-17-34(4,5)45-29(26)30(21(19)3)46(42,43)38-32(35)36-16-10-15-28(31(39)40)37-33(41)44-18-27-24-13-8-6-11-22(24)23-12-7-9-14-25(23)27/h6-9,11-14,27-28H,10,15-18H2,1-5H3,(H,37,41)(H,39,40)(H3,35,36,38)

>  <InChIKey>  (28) 
IBJVDFXPJAKYJJ-UHFFFAOYSA-N

$$$$
N-Methyl-2-pyrrolidone (NMP)
     RDKit          2D

  7  7  0  0  0  0  0  0  0  0999 V2000
   -1.6042   -1.6317    0.0000 C   0  0  0  0  0  0  0  0  0  0  0  0
   -0.3906   -0.7500    0.0000 N   0  0  0  0  0  0  0  0  0  0  0  0
    1.0360   -1.2135    0.0000 C   0  0  0  0  0  0  0  0  0  0  0  0
    1.9176    0.0000    0.0000 C   0  0  0  0  0  0  0  0  0  0  0  0
    1.0360    1.2135    0.0000 C   0  0  0  0  0  0  0  0  0  0  0  0
   -0.3906    0.7500    0.0000 C   0  0  0  0  0  0  0  0  0  0  0  0
   -1.6042    1.6317    0.0000 O   0  0  0  0  0  0  0  0  0  0  0  0
  1  2  1  0
  2  3  1  0
  3  4  1  0
  4  5  1  0
  5  6  1  0
  6  7  2  0
  6  2  1  0
M  END
>  <ID>  (29) 
DST-SOL-001

>  <Name>  (29) 
N-Methyl-2-pyrrolidone (NMP)

>  <Primary_Group>  (29) 
9. Synthesis & HPLC Grade Process Solvents

>  <Formula>  (29) 
C5H9NO

>  <Molecular_Weight>  (29) 
99.13

>  <Exact_Mass>  (29) 
99.0684

>  <IUPAC_Name>  (29) 
1-methylpyrrolidin-2-one

>  <SMILES>  (29) 
CN1CCCC1=O

>  <Functional_Role>  (29) 
Peptide synthesis-grade polar aprotic solvent for standard 0.2 M monomer dissolution, Oxyma (Solution 3), and DIC (Solution 4).

>  <InChI>  (29) 
InChI=1S/C5H9NO/c1-6-4-2-3-5(6)7/h2-4H2,1H3

>  <InChIKey>  (29) 
SECXISVLQFMRJM-UHFFFAOYSA-N

$$$$
N,N-Dimethylformamide (DMF)
     RDKit          2D

  5  4  0  0  0  0  0  0  0  0999 V2000
   -1.8187    0.7500    0.0000 C   0  0  0  0  0  0  0  0  0  0  0  0
   -0.5196    0.0000    0.0000 N   0  0  0  0  0  0  0  0  0  0  0  0
   -0.5196   -1.5000    0.0000 C   0  0  0  0  0  0  0  0  0  0  0  0
    0.7794    0.7500    0.0000 C   0  0  0  0  0  0  0  0  0  0  0  0
    2.0785   -0.0000    0.0000 O   0  0  0  0  0  0  0  0  0  0  0  0
  1  2  1  0
  2  3  1  0
  2  4  1  0
  4  5  2  0
M  END
>  <ID>  (30) 
DST-SOL-002

>  <Name>  (30) 
N,N-Dimethylformamide (DMF)

>  <Primary_Group>  (30) 
9. Synthesis & HPLC Grade Process Solvents

>  <Formula>  (30) 
C3H7NO

>  <Molecular_Weight>  (30) 
73.09

>  <Exact_Mass>  (30) 
73.0528

>  <IUPAC_Name>  (30) 
N,N-dimethylformamide

>  <SMILES>  (30) 
CN(C)C=O

>  <Functional_Role>  (30) 
Primary reaction and washing solvent (Solution 6) for resin swelling, cyclic needle decontamination, and deprotection steps.

>  <InChI>  (30) 
InChI=1S/C3H7NO/c1-4(2)3-5/h3H,1-2H3

>  <InChIKey>  (30) 
ZMXDDKWLCZADIW-UHFFFAOYSA-N

$$$$
Dichloromethane (DCM)
     RDKit          2D

  3  2  0  0  0  0  0  0  0  0999 V2000
    1.2990    0.2500    0.0000 Cl  0  0  0  0  0  0  0  0  0  0  0  0
   -0.0000   -0.5000    0.0000 C   0  0  0  0  0  0  0  0  0  0  0  0
   -1.2990    0.2500    0.0000 Cl  0  0  0  0  0  0  0  0  0  0  0  0
  1  2  1  0
  2  3  1  0
M  END
>  <ID>  (31) 
DST-SOL-003

>  <Name>  (31) 
Dichloromethane (DCM)

>  <Primary_Group>  (31) 
9. Synthesis & HPLC Grade Process Solvents

>  <Formula>  (31) 
CH2Cl2

>  <Molecular_Weight>  (31) 
84.93

>  <Exact_Mass>  (31) 
83.9534

>  <IUPAC_Name>  (31) 
Dichloromethane

>  <SMILES>  (31) 
ClCCl

>  <Functional_Role>  (31) 
Volatile chlorinated solvent (Solution 8) for initial resin pre-swelling (DMF:DCM 2:1) and post-synthesis displacement of DMF.

>  <InChI>  (31) 
InChI=1S/CH2Cl2/c2-1-3/h1H2

>  <InChIKey>  (31) 
YMWUJEATGCHHMB-UHFFFAOYSA-N

$$$$
Methanol (MeOH)
     RDKit          2D

  2  1  0  0  0  0  0  0  0  0999 V2000
   -0.7500    0.0000    0.0000 C   0  0  0  0  0  0  0  0  0  0  0  0
    0.7500   -0.0000    0.0000 O   0  0  0  0  0  0  0  0  0  0  0  0
  1  2  1  0
M  END
>  <ID>  (32) 
DST-SOL-004

>  <Name>  (32) 
Methanol (MeOH)

>  <Primary_Group>  (32) 
9. Synthesis & HPLC Grade Process Solvents

>  <Formula>  (32) 
CH4O

>  <Molecular_Weight>  (32) 
32.04

>  <Exact_Mass>  (32) 
32.0262

>  <IUPAC_Name>  (32) 
Methanol

>  <SMILES>  (32) 
CO

>  <Functional_Role>  (32) 
HPLC-grade solvent utilized to prepare 1:250 dilutions (Solution 2) for incoming raw material HPLC purity acceptance testing.

>  <InChI>  (32) 
InChI=1S/CH4O/c1-2/h2H,1H3

>  <InChIKey>  (32) 
OKKJLVBELUTLKV-UHFFFAOYSA-N

$$$$
Acetonitrile (ACN)
     RDKit          2D

  3  2  0  0  0  0  0  0  0  0999 V2000
   -1.5000    0.0000    0.0000 C   0  0  0  0  0  0  0  0  0  0  0  0
    0.0000    0.0000    0.0000 C   0  0  0  0  0  0  0  0  0  0  0  0
    1.5000   -0.0000    0.0000 N   0  0  0  0  0  0  0  0  0  0  0  0
  1  2  1  0
  2  3  3  0
M  END
>  <ID>  (33) 
DST-SOL-005

>  <Name>  (33) 
Acetonitrile (ACN)

>  <Primary_Group>  (33) 
9. Synthesis & HPLC Grade Process Solvents

>  <Formula>  (33) 
C2H3N

>  <Molecular_Weight>  (33) 
41.05

>  <Exact_Mass>  (33) 
41.0265

>  <IUPAC_Name>  (33) 
Acetonitrile

>  <SMILES>  (33) 
CC#N

>  <Functional_Role>  (33) 
Organic mobile phase Canal D (ACN + 0.1 % TFA) for reverse-phase analytical and semi-preparative HPLC fractionation on Agilent 1260.

>  <InChI>  (33) 
InChI=1S/C2H3N/c1-2-3/h1H3

>  <InChIKey>  (33) 
WEVYAHXRMPXWCK-UHFFFAOYSA-N

$$$$
Dimethyl Sulfoxide (DMSO)
     RDKit          2D

  4  3  0  0  0  0  0  0  0  0999 V2000
   -1.2990   -0.7500    0.0000 C   0  0  0  0  0  0  0  0  0  0  0  0
    0.0000    0.0000    0.0000 S   0  0  0  0  0  0  0  0  0  0  0  0
    1.2990   -0.7500    0.0000 C   0  0  0  0  0  0  0  0  0  0  0  0
    0.0000    1.5000    0.0000 O   0  0  0  0  0  0  0  0  0  0  0  0
  1  2  1  0
  2  3  1  0
  2  4  2  0
M  END
>  <ID>  (34) 
DST-SOL-006

>  <Name>  (34) 
Dimethyl Sulfoxide (DMSO)

>  <Primary_Group>  (34) 
9. Synthesis & HPLC Grade Process Solvents

>  <Formula>  (34) 
C2H6OS

>  <Molecular_Weight>  (34) 
78.14

>  <Exact_Mass>  (34) 
78.0139

>  <IUPAC_Name>  (34) 
Dimethyl sulfoxide (Methylsulfinylmethane)

>  <SMILES>  (34) 
CS(C)=O

>  <Functional_Role>  (34) 
High-dielectric organic co-solvent (<= 20 % v/v) employed to disperse aggregates and resolve persistent turbidity in hydrophobic probes.

>  <InChI>  (34) 
InChI=1S/C2H6OS/c1-4(2)3/h1-2H3

>  <InChIKey>  (34) 
IAZDPXIOMUYVGZ-UHFFFAOYSA-N

$$$$
Sinapic Acid (Sinapinic Acid)
     RDKit          2D

 16 16  0  0  0  0  0  0  0  0999 V2000
    2.9021   -3.5461    0.0000 C   0  0  0  0  0  0  0  0  0  0  0  0
    3.2543   -2.0881    0.0000 O   0  0  0  0  0  0  0  0  0  0  0  0
    2.1676   -1.0540    0.0000 C   0  0  0  0  0  0  0  0  0  0  0  0
    0.7288   -1.4781    0.0000 C   0  0  0  0  0  0  0  0  0  0  0  0
   -0.3578   -0.4440    0.0000 C   0  0  0  0  0  0  0  0  0  0  0  0
   -1.7966   -0.8681    0.0000 C   0  0  0  0  0  0  0  0  0  0  0  0
   -2.8833    0.1660    0.0000 C   0  0  0  0  0  0  0  0  0  0  0  0
   -4.3221   -0.2581    0.0000 C   0  0  0  0  0  0  0  0  0  0  0  0
   -4.6743   -1.7161    0.0000 O   0  0  0  0  0  0  0  0  0  0  0  0
   -5.4087    0.7760    0.0000 O   0  0  0  0  0  0  0  0  0  0  0  0
   -0.0056    1.0140    0.0000 C   0  0  0  0  0  0  0  0  0  0  0  0
    1.4332    1.4381    0.0000 C   0  0  0  0  0  0  0  0  0  0  0  0
    1.7854    2.8962    0.0000 O   0  0  0  0  0  0  0  0  0  0  0  0
    0.6987    3.9302    0.0000 C   0  0  0  0  0  0  0  0  0  0  0  0
    2.5198    0.4040    0.0000 C   0  0  0  0  0  0  0  0  0  0  0  0
    3.9586    0.8281    0.0000 O   0  0  0  0  0  0  0  0  0  0  0  0
  1  2  1  0
  2  3  1  0
  3  4  1  0
  4  5  2  0
  5  6  1  0
  6  7  2  0
  7  8  1  0
  8  9  2  0
  8 10  1  0
  5 11  1  0
 11 12  2  0
 12 13  1  0
 13 14  1  0
 12 15  1  0
 15 16  1  0
 15  3  2  0
M  END
>  <ID>  (35) 
DST-MS-001

>  <Name>  (35) 
Sinapic Acid (Sinapinic Acid)

>  <Primary_Group>  (35) 
10. Analytical Standards, Reporters & Byproducts

>  <Formula>  (35) 
C11H12O5

>  <Molecular_Weight>  (35) 
224.21

>  <Exact_Mass>  (35) 
224.0685

>  <IUPAC_Name>  (35) 
(2E)-3-(4-hydroxy-3,5-dimethoxyphenyl)prop-2-enoic acid

>  <SMILES>  (35) 
COc1cc(/C=C/C(=O)O)cc(OC)c1O

>  <Functional_Role>  (35) 
Soft-ionization MALDI-ToF matrix (10-15 mg/mL in H2O/ACN 1:1 + 0.1 % TFA, Solution 10) optimized for mid-to-high MW PNA/DGL identification on Bruker Autoflex.

>  <InChI>  (35) 
InChI=1S/C11H12O5/c1-15-8-5-7(3-4-10(12)13)6-9(16-2)11(8)14/h3-6,14H,1-2H3,(H,12,13)/b4-3+

>  <InChIKey>  (35) 
PCMORTLOPMLEFB-ONEGZZNKSA-N

$$$$
FITC (Fluorescein 5-Isothiocyanate)
     RDKit          2D

 28 32  0  0  0  0  0  0  0  0999 V2000
    1.1116   -4.2685    0.0000 O   0  0  0  0  0  0  0  0  0  0  0  0
    0.7352   -2.8164    0.0000 C   0  0  0  0  0  0  0  0  0  0  0  0
    1.6887   -1.6585    0.0000 O   0  0  0  0  0  0  0  0  0  0  0  0
    0.8821   -0.3938    0.0000 C   0  0  0  0  0  0  0  0  0  0  0  0
    2.3655   -0.1713    0.0000 C   0  0  0  0  0  0  0  0  0  0  0  0
    3.2999   -1.3447    0.0000 C   0  0  0  0  0  0  0  0  0  0  0  0
    4.7833   -1.1222    0.0000 C   0  0  0  0  0  0  0  0  0  0  0  0
    5.3323    0.2737    0.0000 C   0  0  0  0  0  0  0  0  0  0  0  0
    6.8157    0.4962    0.0000 O   0  0  0  0  0  0  0  0  0  0  0  0
    4.3979    1.4471    0.0000 C   0  0  0  0  0  0  0  0  0  0  0  0
    2.9145    1.2246    0.0000 C   0  0  0  0  0  0  0  0  0  0  0  0
    1.9801    2.3980    0.0000 O   0  0  0  0  0  0  0  0  0  0  0  0
    0.4967    2.1755    0.0000 C   0  0  0  0  0  0  0  0  0  0  0  0
   -0.4377    3.3489    0.0000 C   0  0  0  0  0  0  0  0  0  0  0  0
   -1.9211    3.1264    0.0000 C   0  0  0  0  0  0  0  0  0  0  0  0
   -2.8555    4.2998    0.0000 O   0  0  0  0  0  0  0  0  0  0  0  0
   -2.4701    1.7305    0.0000 C   0  0  0  0  0  0  0  0  0  0  0  0
   -1.5357    0.5571    0.0000 C   0  0  0  0  0  0  0  0  0  0  0  0
   -0.0523    0.7796    0.0000 C   0  0  0  0  0  0  0  0  0  0  0  0
   -0.5699   -0.7702    0.0000 C   0  0  0  0  0  0  0  0  0  0  0  0
   -1.8635   -0.6417    0.0000 C   0  0  0  0  0  0  0  0  0  0  0  0
   -2.5793   -0.9990    0.0000 C   0  0  0  0  0  0  0  0  0  0  0  0
   -4.4145    0.2142    0.0000 N   0  0  0  0  0  0  0  0  0  0  0  0
   -5.7565   -0.4558    0.0000 C   0  0  0  0  0  0  0  0  0  0  0  0
   -7.0986   -1.1258    0.0000 S   0  0  0  0  0  0  0  0  0  0  0  0
   -2.6277   -1.7976    0.0000 C   0  0  0  0  0  0  0  0  0  0  0  0
   -1.9604   -2.2387    0.0000 C   0  0  0  0  0  0  0  0  0  0  0  0
   -0.6607   -2.2674    0.0000 C   0  0  0  0  0  0  0  0  0  0  0  0
  1  2  2  0
  2  3  1  0
  3  4  1  0
  4  5  1  0
  5  6  1  0
  6  7  2  0
  7  8  1  0
  8  9  1  0
  8 10  2  0
 10 11  1  0
 11 12  1  0
 12 13  1  0
 13 14  1  0
 14 15  2  0
 15 16  1  0
 15 17  1  0
 17 18  2  0
 18 19  1  0
  4 20  1  0
 20 21  1  0
 21 22  2  0
 22 23  1  0
 23 24  2  0
 24 25  2  0
 22 26  1  0
 26 27  2  0
 27 28  1  0
 28  2  1  0
 19  4  1  0
 28 20  2  0
 11  5  2  0
 19 13  2  0
M  END
>  <ID>  (36) 
DST-FL-001

>  <Name>  (36) 
FITC (Fluorescein 5-Isothiocyanate)

>  <Primary_Group>  (36) 
10. Analytical Standards, Reporters & Byproducts

>  <Formula>  (36) 
C21H11NO5S

>  <Molecular_Weight>  (36) 
389.39

>  <Exact_Mass>  (36) 
389.0358

>  <IUPAC_Name>  (36) 
2-(6-hydroxy-3-oxo-3H-xanthen-9-yl)-5-isothiocyanatobenzoic acid

>  <SMILES>  (36) 
O=C1OC2(c3ccc(O)cc3Oc3cc(O)ccc32)c2cc(N=C=S)ccc21

>  <Functional_Role>  (36) 
Green fluorophore (Ex: 494 nm, Em: 518 nm) used for N-terminal covalent conjugation to PNA/DGL diagnostic probes.

>  <InChI>  (36) 
InChI=1S/C21H11NO5S/c23-12-2-5-15-18(8-12)26-19-9-13(24)3-6-16(19)21(15)17-7-11(22-10-28)1-4-14(17)20(25)27-21/h1-9,23-24H

>  <InChIKey>  (36) 
GTQFZXYECNSNNC-UHFFFAOYSA-N

$$$$
Rhodamine B
     RDKit          2D

 33 37  0  0  0  0  0  0  0  0999 V2000
   -8.1683    1.2160    0.0000 C   0  0  0  0  0  0  0  0  0  0  0  0
   -6.8164    0.5659    0.0000 C   0  0  0  0  0  0  0  0  0  0  0  0
   -5.5776    1.4116    0.0000 N   0  0  0  0  0  0  0  0  0  0  0  0
   -5.6905    2.9074    0.0000 C   0  0  0  0  0  0  0  0  0  0  0  0
   -7.0424    3.5574    0.0000 C   0  0  0  0  0  0  0  0  0  0  0  0
   -4.2257    0.7616    0.0000 C   0  0  0  0  0  0  0  0  0  0  0  0
   -4.1127   -0.7341    0.0000 C   0  0  0  0  0  0  0  0  0  0  0  0
   -2.7609   -1.3841    0.0000 C   0  0  0  0  0  0  0  0  0  0  0  0
   -1.5220   -0.5384    0.0000 C   0  0  0  0  0  0  0  0  0  0  0  0
   -1.6350    0.9573    0.0000 C   0  0  0  0  0  0  0  0  0  0  0  0
   -2.9869    1.6073    0.0000 C   0  0  0  0  0  0  0  0  0  0  0  0
   -0.3962    1.8030    0.0000 O   0  0  0  0  0  0  0  0  0  0  0  0
    0.9557    1.1530    0.0000 C   0  0  0  0  0  0  0  0  0  0  0  0
    2.1945    1.9987    0.0000 C   0  0  0  0  0  0  0  0  0  0  0  0
    3.5464    1.3487    0.0000 C   0  0  0  0  0  0  0  0  0  0  0  0
    4.7852    2.1944    0.0000 N   0  0  0  0  0  0  0  0  0  0  0  0
    4.6722    3.6901    0.0000 C   0  0  0  0  0  0  0  0  0  0  0  0
    5.9111    4.5359    0.0000 C   0  0  0  0  0  0  0  0  0  0  0  0
    6.1371    1.5444    0.0000 C   0  0  0  0  0  0  0  0  0  0  0  0
    7.3759    2.3901    0.0000 C   0  0  0  0  0  0  0  0  0  0  0  0
    3.6593   -0.1471    0.0000 C   0  0  0  0  0  0  0  0  0  0  0  0
    2.4205   -0.9928    0.0000 C   0  0  0  0  0  0  0  0  0  0  0  0
    1.0686   -0.3427    0.0000 C   0  0  0  0  0  0  0  0  0  0  0  0
   -0.1702   -1.1885    0.0000 C   0  0  0  0  0  0  0  0  0  0  0  0
   -1.3139   -2.1590    0.0000 O   0  0  0  0  0  0  0  0  0  0  0  0
   -0.7442   -3.5467    0.0000 C   0  0  0  0  0  0  0  0  0  0  0  0
   -1.5320   -4.8231    0.0000 O   0  0  0  0  0  0  0  0  0  0  0  0
    0.7515   -3.4337    0.0000 C   0  0  0  0  0  0  0  0  0  0  0  0
    2.0019   -3.7895    0.0000 C   0  0  0  0  0  0  0  0  0  0  0  0
    2.7696   -3.5647    0.0000 C   0  0  0  0  0  0  0  0  0  0  0  0
    2.9588   -2.7874    0.0000 C   0  0  0  0  0  0  0  0  0  0  0  0
    2.3803   -2.2349    0.0000 C   0  0  0  0  0  0  0  0  0  0  0  0
    1.1063   -1.9762    0.0000 C   0  0  0  0  0  0  0  0  0  0  0  0
  1  2  1  0
  2  3  1  0
  3  4  1  0
  4  5  1  0
  3  6  1  0
  6  7  1  0
  7  8  2  0
  8  9  1  0
  9 10  2  0
 10 11  1  0
 10 12  1  0
 12 13  1  0
 13 14  1  0
 14 15  2  0
 15 16  1  0
 16 17  1  0
 17 18  1  0
 16 19  1  0
 19 20  1  0
 15 21  1  0
 21 22  2  0
 22 23  1  0
 23 24  1  0
 24 25  1  0
 25 26  1  0
 26 27  2  0
 26 28  1  0
 28 29  2  0
 29 30  1  0
 30 31  2  0
 31 32  1  0
 32 33  2  0
 11  6  2  0
 23 13  2  0
 33 24  1  0
 24  9  1  0
 33 28  1  0
M  END
>  <ID>  (37) 
DST-FL-002

>  <Name>  (37) 
Rhodamine B

>  <Primary_Group>  (37) 
10. Analytical Standards, Reporters & Byproducts

>  <Formula>  (37) 
C28H30N2O3

>  <Molecular_Weight>  (37) 
442.56

>  <Exact_Mass>  (37) 
442.2256

>  <IUPAC_Name>  (37) 
[9-(2-carboxyphenyl)-6-(diethylamino)xanthen-3-ylidene]-diethylazanium

>  <SMILES>  (37) 
CCN(CC)c1ccc2c(c1)Oc1cc(N(CC)CC)ccc1C21OC(=O)c2ccccc21

>  <Functional_Role>  (37) 
Red/pink fluorophore used as fluorescent tracer and for immediate optical inspection of the precipitated pellet.

>  <InChI>  (37) 
InChI=1S/C28H30N2O3/c1-5-29(6-2)19-13-15-23-25(17-19)32-26-18-20(30(7-3)8-4)14-16-24(26)28(23)22-12-10-9-11-21(22)27(31)33-28/h9-18H,5-8H2,1-4H3

>  <InChIKey>  (37) 
DZNJMLVCIZGWSC-UHFFFAOYSA-N

$$$$
Dibenzofulvene (DBF)
     RDKit          2D

 14 16  0  0  0  0  0  0  0  0999 V2000
    0.0000   -3.1041    0.0000 C   0  0  0  0  0  0  0  0  0  0  0  0
    0.0000   -1.6041    0.0000 C   0  0  0  0  0  0  0  0  0  0  0  0
    1.2135   -0.7224    0.0000 C   0  0  0  0  0  0  0  0  0  0  0  0
    2.6807   -1.0342    0.0000 C   0  0  0  0  0  0  0  0  0  0  0  0
    3.6844    0.0805    0.0000 C   0  0  0  0  0  0  0  0  0  0  0  0
    3.2209    1.5071    0.0000 C   0  0  0  0  0  0  0  0  0  0  0  0
    1.7537    1.8189    0.0000 C   0  0  0  0  0  0  0  0  0  0  0  0
    0.7500    0.7042    0.0000 C   0  0  0  0  0  0  0  0  0  0  0  0
   -0.7500    0.7042    0.0000 C   0  0  0  0  0  0  0  0  0  0  0  0
   -1.7537    1.8189    0.0000 C   0  0  0  0  0  0  0  0  0  0  0  0
   -3.2209    1.5071    0.0000 C   0  0  0  0  0  0  0  0  0  0  0  0
   -3.6844    0.0805    0.0000 C   0  0  0  0  0  0  0  0  0  0  0  0
   -2.6807   -1.0342    0.0000 C   0  0  0  0  0  0  0  0  0  0  0  0
   -1.2135   -0.7224    0.0000 C   0  0  0  0  0  0  0  0  0  0  0  0
  1  2  2  0
  2  3  1  0
  3  4  2  0
  4  5  1  0
  5  6  2  0
  6  7  1  0
  7  8  2  0
  8  9  1  0
  9 10  2  0
 10 11  1  0
 11 12  2  0
 12 13  1  0
 13 14  2  0
 14  2  1  0
  8  3  1  0
 14  9  1  0
M  END
>  <ID>  (38) 
DST-BYP-001

>  <Name>  (38) 
Dibenzofulvene (DBF)

>  <Primary_Group>  (38) 
10. Analytical Standards, Reporters & Byproducts

>  <Formula>  (38) 
C14H10

>  <Molecular_Weight>  (38) 
178.23

>  <Exact_Mass>  (38) 
178.0783

>  <IUPAC_Name>  (38) 
9-methylidene-9H-fluorene

>  <SMILES>  (38) 
C=C1c2ccccc2-c2ccccc21

>  <Functional_Role>  (38) 
Electrophilic fulvene intermediate generated during Fmoc cleavage, trapped by piperidine to form DBF-piperidine adducts quantified at 301 nm.

>  <InChI>  (38) 
InChI=1S/C14H10/c1-10-11-6-2-4-8-13(11)14-9-5-3-7-12(10)14/h2-9H,1H2

>  <InChIKey>  (38) 
ZYASLTYCYTYKFC-UHFFFAOYSA-N

$$$$
Adenine (A)
     RDKit          2D

 10 11  0  0  0  0  0  0  0  0999 V2000
    1.6198    2.3424    0.0000 N   0  0  0  0  0  0  0  0  0  0  0  0
    1.2034    0.9014    0.0000 C   0  0  0  0  0  0  0  0  0  0  0  0
    2.2432   -0.1798    0.0000 N   0  0  0  0  0  0  0  0  0  0  0  0
    1.8268   -1.6208    0.0000 C   0  0  0  0  0  0  0  0  0  0  0  0
    0.3706   -1.9807    0.0000 N   0  0  0  0  0  0  0  0  0  0  0  0
   -0.6692   -0.8996    0.0000 C   0  0  0  0  0  0  0  0  0  0  0  0
   -2.1684   -0.9489    0.0000 N   0  0  0  0  0  0  0  0  0  0  0  0
   -2.6786    0.4617    0.0000 C   0  0  0  0  0  0  0  0  0  0  0  0
   -1.4947    1.3828    0.0000 N   0  0  0  0  0  0  0  0  0  0  0  0
   -0.2528    0.5415    0.0000 C   0  0  0  0  0  0  0  0  0  0  0  0
  1  2  1  0
  2  3  1  0
  3  4  2  0
  4  5  1  0
  5  6  2  0
  6  7  1  0
  7  8  1  0
  8  9  2  0
  9 10  1  0
 10  2  2  0
 10  6  1  0
M  END
>  <ID>  (39) 
DST-BAS-001

>  <Name>  (39) 
Adenine (A)

>  <Primary_Group>  (39) 
10. Analytical Standards, Reporters & Byproducts

>  <Formula>  (39) 
C5H5N5

>  <Molecular_Weight>  (39) 
135.13

>  <Exact_Mass>  (39) 
135.0545

>  <IUPAC_Name>  (39) 
7H-purin-6-amine

>  <SMILES>  (39) 
Nc1ncnc2[nH]cnc12

>  <Functional_Role>  (39) 
Free nucleobase reference for probe spectrophotometric quantification. Molar extinction coefficient: ε₂₆₀ = 13.7 × 10³ M⁻¹ cm⁻¹.

>  <InChI>  (39) 
InChI=1S/C5H5N5/c6-4-3-5(9-1-7-3)10-2-8-4/h1-2H,(H3,6,7,8,9,10)

>  <InChIKey>  (39) 
GFFGJBXGBJISGV-UHFFFAOYSA-N

$$$$
Cytosine (C)
     RDKit          2D

  8  8  0  0  0  0  0  0  0  0999 V2000
   -2.5981   -1.1250    0.0000 N   0  0  0  0  0  0  0  0  0  0  0  0
   -1.2990   -0.3750    0.0000 C   0  0  0  0  0  0  0  0  0  0  0  0
   -1.2990    1.1250    0.0000 C   0  0  0  0  0  0  0  0  0  0  0  0
    0.0000    1.8750    0.0000 C   0  0  0  0  0  0  0  0  0  0  0  0
    1.2990    1.1250    0.0000 N   0  0  0  0  0  0  0  0  0  0  0  0
    1.2990   -0.3750    0.0000 C   0  0  0  0  0  0  0  0  0  0  0  0
    2.5981   -1.1250    0.0000 O   0  0  0  0  0  0  0  0  0  0  0  0
   -0.0000   -1.1250    0.0000 N   0  0  0  0  0  0  0  0  0  0  0  0
  1  2  1  0
  2  3  1  0
  3  4  2  0
  4  5  1  0
  5  6  1  0
  6  7  2  0
  6  8  1  0
  8  2  2  0
M  END
>  <ID>  (40) 
DST-BAS-002

>  <Name>  (40) 
Cytosine (C)

>  <Primary_Group>  (40) 
10. Analytical Standards, Reporters & Byproducts

>  <Formula>  (40) 
C4H5N3O

>  <Molecular_Weight>  (40) 
111.1

>  <Exact_Mass>  (40) 
111.0433

>  <IUPAC_Name>  (40) 
4-aminopyrimidin-2(1H)-one

>  <SMILES>  (40) 
Nc1cc[nH]c(=O)n1

>  <Functional_Role>  (40) 
Free nucleobase reference for probe spectrophotometric quantification. Molar extinction coefficient: ε₂₆₀ = 6.6 × 10³ M⁻¹ cm⁻¹.

>  <InChI>  (40) 
InChI=1S/C4H5N3O/c5-3-1-2-6-4(8)7-3/h1-2H,(H3,5,6,7,8)

>  <InChIKey>  (40) 
OPTASPLRGRRNAP-UHFFFAOYSA-N

$$$$
Guanine (G)
     RDKit          2D

 11 12  0  0  0  0  0  0  0  0999 V2000
    3.4185   -1.0669    0.0000 N   0  0  0  0  0  0  0  0  0  0  0  0
    2.0102   -0.5504    0.0000 C   0  0  0  0  0  0  0  0  0  0  0  0
    0.8588   -1.5117    0.0000 N   0  0  0  0  0  0  0  0  0  0  0  0
   -0.5495   -0.9951    0.0000 C   0  0  0  0  0  0  0  0  0  0  0  0
   -1.8757   -1.6960    0.0000 N   0  0  0  0  0  0  0  0  0  0  0  0
   -2.9521   -0.6513    0.0000 C   0  0  0  0  0  0  0  0  0  0  0  0
   -2.2911    0.6952    0.0000 N   0  0  0  0  0  0  0  0  0  0  0  0
   -0.8063    0.4827    0.0000 C   0  0  0  0  0  0  0  0  0  0  0  0
    0.3452    1.4440    0.0000 C   0  0  0  0  0  0  0  0  0  0  0  0
    0.0884    2.9219    0.0000 O   0  0  0  0  0  0  0  0  0  0  0  0
    1.7535    0.9275    0.0000 N   0  0  0  0  0  0  0  0  0  0  0  0
  1  2  1  0
  2  3  2  0
  3  4  1  0
  4  5  1  0
  5  6  1  0
  6  7  2  0
  7  8  1  0
  8  9  1  0
  9 10  2  0
  9 11  1  0
 11  2  1  0
  8  4  2  0
M  END
>  <ID>  (41) 
DST-BAS-003

>  <Name>  (41) 
Guanine (G)

>  <Primary_Group>  (41) 
10. Analytical Standards, Reporters & Byproducts

>  <Formula>  (41) 
C5H5N5O

>  <Molecular_Weight>  (41) 
151.13

>  <Exact_Mass>  (41) 
151.0494

>  <IUPAC_Name>  (41) 
2-amino-1,9-dihydro-6H-purin-6-one

>  <SMILES>  (41) 
Nc1nc2[nH]cnc2c(=O)[nH]1

>  <Functional_Role>  (41) 
Free nucleobase reference for probe spectrophotometric quantification. Molar extinction coefficient: ε₂₆₀ = 11.7 × 10³ M⁻¹ cm⁻¹.

>  <InChI>  (41) 
InChI=1S/C5H5N5O/c6-5-9-3-2(4(11)10-5)7-1-8-3/h1H,(H4,6,7,8,9,10,11)

>  <InChIKey>  (41) 
UYTPUPDQBNUYGX-UHFFFAOYSA-N

$$$$
Thymine (T)
     RDKit          2D

  9  9  0  0  0  0  0  0  0  0999 V2000
    2.6931   -0.9264    0.0000 C   0  0  0  0  0  0  0  0  0  0  0  0
    1.2325   -0.5848    0.0000 C   0  0  0  0  0  0  0  0  0  0  0  0
    0.2064   -1.6788    0.0000 C   0  0  0  0  0  0  0  0  0  0  0  0
   -1.2542   -1.3372    0.0000 N   0  0  0  0  0  0  0  0  0  0  0  0
   -1.6886    0.0985    0.0000 C   0  0  0  0  0  0  0  0  0  0  0  0
   -3.1492    0.4401    0.0000 O   0  0  0  0  0  0  0  0  0  0  0  0
   -0.6625    1.1926    0.0000 N   0  0  0  0  0  0  0  0  0  0  0  0
    0.7981    0.8510    0.0000 C   0  0  0  0  0  0  0  0  0  0  0  0
    1.8243    1.9450    0.0000 O   0  0  0  0  0  0  0  0  0  0  0  0
  1  2  1  0
  2  3  2  0
  3  4  1  0
  4  5  1  0
  5  6  2  0
  5  7  1  0
  7  8  1  0
  8  9  2  0
  8  2  1  0
M  END
>  <ID>  (42) 
DST-BAS-004

>  <Name>  (42) 
Thymine (T)

>  <Primary_Group>  (42) 
10. Analytical Standards, Reporters & Byproducts

>  <Formula>  (42) 
C5H6N2O2

>  <Molecular_Weight>  (42) 
126.11

>  <Exact_Mass>  (42) 
126.0429

>  <IUPAC_Name>  (42) 
5-methylpyrimidine-2,4(1H,3H)-dione

>  <SMILES>  (42) 
Cc1c[nH]c(=O)[nH]c1=O

>  <Functional_Role>  (42) 
Free nucleobase reference for probe spectrophotometric quantification. Molar extinction coefficient: ε₂₆₀ = 8.8 × 10³ M⁻¹ cm⁻¹.

>  <InChI>  (42) 
InChI=1S/C5H6N2O2/c1-3-2-6-5(9)7-4(3)8/h2H,1H3,(H2,6,7,8,9)

>  <InChIKey>  (42) 
RWQNBRDOKXIBIV-UHFFFAOYSA-N

$$$$
5-Iodocytosine (4-Amino-5-iodopyrimidin-2(1H)-one)
     RDKit          2D

  9  9  0  0  0  0  0  0  0  0999 V2000
    1.8243   -1.9450    0.0000 N   0  0  0  0  0  0  0  0  0  0  0  0
    0.7981   -0.8510    0.0000 C   0  0  0  0  0  0  0  0  0  0  0  0
   -0.6625   -1.1926    0.0000 N   0  0  0  0  0  0  0  0  0  0  0  0
   -1.6886   -0.0985    0.0000 C   0  0  0  0  0  0  0  0  0  0  0  0
   -3.1492   -0.4401    0.0000 O   0  0  0  0  0  0  0  0  0  0  0  0
   -1.2542    1.3372    0.0000 N   0  0  0  0  0  0  0  0  0  0  0  0
    0.2064    1.6788    0.0000 C   0  0  0  0  0  0  0  0  0  0  0  0
    1.2325    0.5848    0.0000 C   0  0  0  0  0  0  0  0  0  0  0  0
    2.6931    0.9264    0.0000 I   0  0  0  0  0  0  0  0  0  0  0  0
  1  2  1  0
  2  3  2  0
  3  4  1  0
  4  5  2  0
  4  6  1  0
  6  7  1  0
  7  8  2  0
  8  9  1  0
  8  2  1  0
M  END
>  <ID>  (43) 
DST-SMT-001

>  <Name>  (43) 
5-Iodocytosine (4-Amino-5-iodopyrimidin-2(1H)-one)

>  <Primary_Group>  (43) 
6. SMART Probe Synthetic Intermediates & Reagents (PT-SQ-001)

>  <Formula>  (43) 
C4H4IN3O

>  <Molecular_Weight>  (43) 
237.0

>  <Exact_Mass>  (43) 
236.9399

>  <IUPAC_Name>  (43) 
4-amino-5-iodopyrimidin-2(1H)-one

>  <SMILES>  (43) 
Nc1nc(=O)[nH]cc1I

>  <Functional_Role>  (43) 
Starting pyrimidinone substrate (>98% purity) for N1-alkylation in Step 1 of SMART Cytosine synthesis.

>  <CAS_Number>  (43) 
1122-44-7

>  <Source_Document>  (43) 
PT-SQ-001 Paso 1 (Table 2)

>  <InChI>  (43) 
InChI=1S/C4H4IN3O/c5-2-1-7-4(9)8-3(2)6/h1H,(H3,6,7,8,9)

>  <InChIKey>  (43) 
UFVWJVAMULFOMC-UHFFFAOYSA-N

$$$$
Bromoacetaldehyde Diethyl Acetal (2-Bromo-1,1-diethoxyethane)
     RDKit          2D

  9  8  0  0  0  0  0  0  0  0999 V2000
   -3.9374    0.5982    0.0000 C   0  0  0  0  0  0  0  0  0  0  0  0
   -2.4382    0.6453    0.0000 C   0  0  0  0  0  0  0  0  0  0  0  0
   -1.6477   -0.6295    0.0000 O   0  0  0  0  0  0  0  0  0  0  0  0
   -0.1484   -0.5823    0.0000 C   0  0  0  0  0  0  0  0  0  0  0  0
    0.6420   -1.8571    0.0000 C   0  0  0  0  0  0  0  0  0  0  0  0
    2.1413   -1.8099    0.0000 Br  0  0  0  0  0  0  0  0  0  0  0  0
    0.5604    0.7397    0.0000 O   0  0  0  0  0  0  0  0  0  0  0  0
    2.0596    0.7868    0.0000 C   0  0  0  0  0  0  0  0  0  0  0  0
    2.7684    2.1088    0.0000 C   0  0  0  0  0  0  0  0  0  0  0  0
  1  2  1  0
  2  3  1  0
  3  4  1  0
  4  5  1  0
  5  6  1  0
  4  7  1  0
  7  8  1  0
  8  9  1  0
M  END
>  <ID>  (44) 
DST-SMT-002

>  <Name>  (44) 
Bromoacetaldehyde Diethyl Acetal (2-Bromo-1,1-diethoxyethane)

>  <Primary_Group>  (44) 
6. SMART Probe Synthetic Intermediates & Reagents (PT-SQ-001)

>  <Formula>  (44) 
C6H13BrO2

>  <Molecular_Weight>  (44) 
197.07

>  <Exact_Mass>  (44) 
196.0099

>  <IUPAC_Name>  (44) 
2-bromo-1,1-diethoxyethane

>  <SMILES>  (44) 
CCOC(CBr)OCC

>  <Functional_Role>  (44) 
Alkylating reagent introducing the protected diethyl acetal mask onto cytosine N1 in Step 1.

>  <CAS_Number>  (44) 
2032-35-1

>  <Source_Document>  (44) 
PT-SQ-001 Paso 1 (Table 2)

>  <InChI>  (44) 
InChI=1S/C6H13BrO2/c1-3-8-6(5-7)9-4-2/h6H,3-5H2,1-2H3

>  <InChIKey>  (44) 
LILXDMFJXYAKMK-UHFFFAOYSA-N

$$$$
5-Iodo-Cytosine Acetal (Compound 1)
     RDKit          2D

 17 17  0  0  0  0  0  0  0  0999 V2000
   -5.7031   -0.9876    0.0000 C   0  0  0  0  0  0  0  0  0  0  0  0
   -4.3366   -0.3691    0.0000 C   0  0  0  0  0  0  0  0  0  0  0  0
   -3.1177   -1.2433    0.0000 O   0  0  0  0  0  0  0  0  0  0  0  0
   -1.7511   -0.6248    0.0000 C   0  0  0  0  0  0  0  0  0  0  0  0
   -0.5322   -1.4990    0.0000 C   0  0  0  0  0  0  0  0  0  0  0  0
    0.8344   -0.8805    0.0000 N   0  0  0  0  0  0  0  0  0  0  0  0
    0.9820    0.6122    0.0000 C   0  0  0  0  0  0  0  0  0  0  0  0
    2.3485    1.2307    0.0000 C   0  0  0  0  0  0  0  0  0  0  0  0
    2.4962    2.7234    0.0000 I   0  0  0  0  0  0  0  0  0  0  0  0
    3.5675    0.3565    0.0000 C   0  0  0  0  0  0  0  0  0  0  0  0
    4.9340    0.9750    0.0000 N   0  0  0  0  0  0  0  0  0  0  0  0
    3.4198   -1.1362    0.0000 N   0  0  0  0  0  0  0  0  0  0  0  0
    2.0533   -1.7547    0.0000 C   0  0  0  0  0  0  0  0  0  0  0  0
    1.9056   -3.2474    0.0000 O   0  0  0  0  0  0  0  0  0  0  0  0
   -1.6035    0.8679    0.0000 O   0  0  0  0  0  0  0  0  0  0  0  0
   -2.8224    1.7421    0.0000 C   0  0  0  0  0  0  0  0  0  0  0  0
   -2.6747    3.2349    0.0000 C   0  0  0  0  0  0  0  0  0  0  0  0
  1  2  1  0
  2  3  1  0
  3  4  1  0
  4  5  1  0
  5  6  1  0
  6  7  1  0
  7  8  2  0
  8  9  1  0
  8 10  1  0
 10 11  1  0
 10 12  2  0
 12 13  1  0
 13 14  2  0
  4 15  1  0
 15 16  1  0
 16 17  1  0
 13  6  1  0
M  END
>  <ID>  (45) 
DST-SMT-003

>  <Name>  (45) 
5-Iodo-Cytosine Acetal (Compound 1)

>  <Primary_Group>  (45) 
6. SMART Probe Synthetic Intermediates & Reagents (PT-SQ-001)

>  <Formula>  (45) 
C10H16IN3O3

>  <Molecular_Weight>  (45) 
353.16

>  <Exact_Mass>  (45) 
353.0236

>  <IUPAC_Name>  (45) 
4-amino-1-(2,2-diethoxyethyl)-5-iodopyrimidin-2(1H)-one

>  <SMILES>  (45) 
CCOC(CN1C=C(I)C(N)=NC1=O)OCC

>  <Functional_Role>  (45) 
Key N1-alkylated acetal intermediate (MW 353.16 Da) for Sonogashira cross-coupling in Step 2.

>  <Source_Document>  (45) 
PT-SQ-001 Paso 1 & Paso 2 (Table 3)

>  <InChI>  (45) 
InChI=1S/C10H16IN3O3/c1-3-16-8(17-4-2)6-14-5-7(11)9(12)13-10(14)15/h5,8H,3-4,6H2,1-2H3,(H2,12,13,15)

>  <InChIKey>  (45) 
FEYHAZCWWHQCPX-UHFFFAOYSA-N

$$$$
N-Propargyltrifluoroacetamide (2,2,2-Trifluoro-N-(prop-2-yn-1-yl)acetamide)
     RDKit          2D

 10  9  0  0  0  0  0  0  0  0999 V2000
   -0.7874    1.9755    0.0000 O   0  0  0  0  0  0  0  0  0  0  0  0
   -0.6841    0.4790    0.0000 C   0  0  0  0  0  0  0  0  0  0  0  0
    0.6635   -0.1797    0.0000 N   0  0  0  0  0  0  0  0  0  0  0  0
    1.9078    0.6579    0.0000 C   0  0  0  0  0  0  0  0  0  0  0  0
    3.2554   -0.0008    0.0000 C   0  0  0  0  0  0  0  0  0  0  0  0
    4.6030   -0.6596    0.0000 C   0  0  0  0  0  0  0  0  0  0  0  0
   -1.9284   -0.3587    0.0000 C   0  0  0  0  0  0  0  0  0  0  0  0
   -3.1727   -1.1963    0.0000 F   0  0  0  0  0  0  0  0  0  0  0  0
   -2.7661    0.8856    0.0000 F   0  0  0  0  0  0  0  0  0  0  0  0
   -1.0908   -1.6030    0.0000 F   0  0  0  0  0  0  0  0  0  0  0  0
  1  2  2  0
  2  3  1  0
  3  4  1  0
  4  5  1  0
  5  6  3  0
  2  7  1  0
  7  8  1  0
  7  9  1  0
  7 10  1  0
M  END
>  <ID>  (46) 
DST-SMT-004

>  <Name>  (46) 
N-Propargyltrifluoroacetamide (2,2,2-Trifluoro-N-(prop-2-yn-1-yl)acetamide)

>  <Primary_Group>  (46) 
6. SMART Probe Synthetic Intermediates & Reagents (PT-SQ-001)

>  <Formula>  (46) 
C5H4F3NO

>  <Molecular_Weight>  (46) 
151.09

>  <Exact_Mass>  (46) 
151.0245

>  <IUPAC_Name>  (46) 
2,2,2-trifluoro-N-(prop-2-yn-1-yl)acetamide

>  <SMILES>  (46) 
O=C(NCC#C)C(F)(F)F

>  <Functional_Role>  (46) 
Terminal alkyne partner for Sonogashira cross-coupling with 5-iodocytosine acetal in Step 2.

>  <CAS_Number>  (46) 
14719-21-2

>  <Source_Document>  (46) 
PT-SQ-001 Paso 2 (Table 3)

>  <InChI>  (46) 
InChI=1S/C5H4F3NO/c1-2-3-9-4(10)5(6,7)8/h1H,3H2,(H,9,10)

>  <InChIKey>  (46) 
GAUSMJHDHCSZOX-UHFFFAOYSA-N

$$$$
5-PropargylamideTfa-Cytosine Acetal (Compound 2)
     RDKit          2D

 26 26  0  0  0  0  0  0  0  0999 V2000
    7.3039   -3.5240    0.0000 C   0  0  0  0  0  0  0  0  0  0  0  0
    5.9737   -2.8309    0.0000 C   0  0  0  0  0  0  0  0  0  0  0  0
    5.9088   -1.3323    0.0000 O   0  0  0  0  0  0  0  0  0  0  0  0
    4.5786   -0.6391    0.0000 C   0  0  0  0  0  0  0  0  0  0  0  0
    4.5137    0.8595    0.0000 C   0  0  0  0  0  0  0  0  0  0  0  0
    3.1834    1.5526    0.0000 N   0  0  0  0  0  0  0  0  0  0  0  0
    1.9180    0.7471    0.0000 C   0  0  0  0  0  0  0  0  0  0  0  0
    0.5878    1.4402    0.0000 C   0  0  0  0  0  0  0  0  0  0  0  0
   -0.6776    0.6348    0.0000 C   0  0  0  0  0  0  0  0  0  0  0  0
   -1.9430   -0.1707    0.0000 C   0  0  0  0  0  0  0  0  0  0  0  0
   -3.2084   -0.9762    0.0000 C   0  0  0  0  0  0  0  0  0  0  0  0
   -4.5386   -0.2831    0.0000 N   0  0  0  0  0  0  0  0  0  0  0  0
   -5.8040   -1.0885    0.0000 C   0  0  0  0  0  0  0  0  0  0  0  0
   -5.7392   -2.5871    0.0000 O   0  0  0  0  0  0  0  0  0  0  0  0
   -7.1343   -0.3954    0.0000 C   0  0  0  0  0  0  0  0  0  0  0  0
   -8.4645    0.2977    0.0000 F   0  0  0  0  0  0  0  0  0  0  0  0
   -7.8274   -1.7257    0.0000 F   0  0  0  0  0  0  0  0  0  0  0  0
   -6.4412    0.9348    0.0000 F   0  0  0  0  0  0  0  0  0  0  0  0
    0.5229    2.9388    0.0000 C   0  0  0  0  0  0  0  0  0  0  0  0
   -0.8073    3.6319    0.0000 N   0  0  0  0  0  0  0  0  0  0  0  0
    1.7883    3.7443    0.0000 N   0  0  0  0  0  0  0  0  0  0  0  0
    3.1186    3.0512    0.0000 C   0  0  0  0  0  0  0  0  0  0  0  0
    4.3840    3.8566    0.0000 O   0  0  0  0  0  0  0  0  0  0  0  0
    3.3132   -1.4446    0.0000 O   0  0  0  0  0  0  0  0  0  0  0  0
    3.3780   -2.9432    0.0000 C   0  0  0  0  0  0  0  0  0  0  0  0
    2.1126   -3.7487    0.0000 C   0  0  0  0  0  0  0  0  0  0  0  0
  1  2  1  0
  2  3  1  0
  3  4  1  0
  4  5  1  0
  5  6  1  0
  6  7  1  0
  7  8  2  0
  8  9  1  0
  9 10  3  0
 10 11  1  0
 11 12  1  0
 12 13  1  0
 13 14  2  0
 13 15  1  0
 15 16  1  0
 15 17  1  0
 15 18  1  0
  8 19  1  0
 19 20  1  0
 19 21  2  0
 21 22  1  0
 22 23  2  0
  4 24  1  0
 24 25  1  0
 25 26  1  0
 22  6  1  0
M  END
>  <ID>  (47) 
DST-SMT-005

>  <Name>  (47) 
5-PropargylamideTfa-Cytosine Acetal (Compound 2)

>  <Primary_Group>  (47) 
6. SMART Probe Synthetic Intermediates & Reagents (PT-SQ-001)

>  <Formula>  (47) 
C15H19F3N4O4

>  <Molecular_Weight>  (47) 
376.34

>  <Exact_Mass>  (47) 
376.1358

>  <IUPAC_Name>  (47) 
N-(3-(4-amino-1-(2,2-diethoxyethyl)-2-oxo-1,2-dihydropyrimidin-5-yl)prop-2-yn-1-yl)-2,2,2-trifluoroacetamide

>  <SMILES>  (47) 
CCOC(CN1C=C(C#CCNC(=O)C(F)(F)F)C(N)=NC1=O)OCC

>  <Functional_Role>  (47) 
Sonogashira coupling product (MW 376.34 Da) bearing an internal alkyne linker (Step 2 product).

>  <Source_Document>  (47) 
PT-SQ-001 Paso 2 & Paso 3 (Table 4)

>  <InChI>  (47) 
InChI=1S/C15H19F3N4O4/c1-3-25-11(26-4-2)9-22-8-10(12(19)21-14(22)24)6-5-7-20-13(23)15(16,17)18/h8,11H,3-4,7,9H2,1-2H3,(H,20,23)(H2,19,21,24)

>  <InChIKey>  (47) 
MZLKSKJLQLIHOW-UHFFFAOYSA-N

$$$$
5-PropylamideTfa-Cytosine Acetal / C-REX-NHTfa (Compound 3)
     RDKit          2D

 26 26  0  0  0  0  0  0  0  0999 V2000
    7.8881   -2.7923    0.0000 C   0  0  0  0  0  0  0  0  0  0  0  0
    6.4626   -2.3257    0.0000 C   0  0  0  0  0  0  0  0  0  0  0  0
    6.1539   -0.8578    0.0000 O   0  0  0  0  0  0  0  0  0  0  0  0
    4.7283   -0.3912    0.0000 C   0  0  0  0  0  0  0  0  0  0  0  0
    4.4196    1.0767    0.0000 C   0  0  0  0  0  0  0  0  0  0  0  0
    2.9941    1.5434    0.0000 N   0  0  0  0  0  0  0  0  0  0  0  0
    1.8772    0.5421    0.0000 C   0  0  0  0  0  0  0  0  0  0  0  0
    0.4516    1.0088    0.0000 C   0  0  0  0  0  0  0  0  0  0  0  0
   -0.6653    0.0075    0.0000 C   0  0  0  0  0  0  0  0  0  0  0  0
   -2.0909    0.4741    0.0000 C   0  0  0  0  0  0  0  0  0  0  0  0
   -3.2078   -0.5271    0.0000 C   0  0  0  0  0  0  0  0  0  0  0  0
   -4.6333   -0.0605    0.0000 N   0  0  0  0  0  0  0  0  0  0  0  0
   -5.7502   -1.0618    0.0000 C   0  0  0  0  0  0  0  0  0  0  0  0
   -5.4416   -2.5297    0.0000 O   0  0  0  0  0  0  0  0  0  0  0  0
   -7.1758   -0.5951    0.0000 C   0  0  0  0  0  0  0  0  0  0  0  0
   -8.6014   -0.1285    0.0000 F   0  0  0  0  0  0  0  0  0  0  0  0
   -7.6425   -2.0207    0.0000 F   0  0  0  0  0  0  0  0  0  0  0  0
   -6.7092    0.8304    0.0000 F   0  0  0  0  0  0  0  0  0  0  0  0
    0.1429    2.4766    0.0000 C   0  0  0  0  0  0  0  0  0  0  0  0
   -1.2826    2.9433    0.0000 N   0  0  0  0  0  0  0  0  0  0  0  0
    1.2598    3.4779    0.0000 N   0  0  0  0  0  0  0  0  0  0  0  0
    2.6854    3.0113    0.0000 C   0  0  0  0  0  0  0  0  0  0  0  0
    3.8023    4.0125    0.0000 O   0  0  0  0  0  0  0  0  0  0  0  0
    3.6114   -1.3924    0.0000 O   0  0  0  0  0  0  0  0  0  0  0  0
    3.9201   -2.8603    0.0000 C   0  0  0  0  0  0  0  0  0  0  0  0
    2.8032   -3.8616    0.0000 C   0  0  0  0  0  0  0  0  0  0  0  0
  1  2  1  0
  2  3  1  0
  3  4  1  0
  4  5  1  0
  5  6  1  0
  6  7  1  0
  7  8  2  0
  8  9  1  0
  9 10  1  0
 10 11  1  0
 11 12  1  0
 12 13  1  0
 13 14  2  0
 13 15  1  0
 15 16  1  0
 15 17  1  0
 15 18  1  0
  8 19  1  0
 19 20  1  0
 19 21  2  0
 21 22  1  0
 22 23  2  0
  4 24  1  0
 24 25  1  0
 25 26  1  0
 22  6  1  0
M  END
>  <ID>  (48) 
DST-SMT-006

>  <Name>  (48) 
5-PropylamideTfa-Cytosine Acetal / C-REX-NHTfa (Compound 3)

>  <Primary_Group>  (48) 
6. SMART Probe Synthetic Intermediates & Reagents (PT-SQ-001)

>  <Formula>  (48) 
C15H23F3N4O4

>  <Molecular_Weight>  (48) 
380.37

>  <Exact_Mass>  (48) 
380.1671

>  <IUPAC_Name>  (48) 
N-(3-(4-amino-1-(2,2-diethoxyethyl)-2-oxo-1,2-dihydropyrimidin-5-yl)propyl)-2,2,2-trifluoroacetamide

>  <SMILES>  (48) 
CCOC(CN1C=C(CCCNC(=O)C(F)(F)F)C(N)=NC1=O)OCC

>  <Functional_Role>  (48) 
Hydrogenated flexible C5-propyl linker intermediate (MW 380.37 Da) prepared by Pd/C catalysis (Step 3).

>  <Source_Document>  (48) 
PT-SQ-001 Paso 3 & Paso 4 (Table 5)

>  <InChI>  (48) 
InChI=1S/C15H23F3N4O4/c1-3-25-11(26-4-2)9-22-8-10(12(19)21-14(22)24)6-5-7-20-13(23)15(16,17)18/h8,11H,3-7,9H2,1-2H3,(H,20,23)(H2,19,21,24)

>  <InChIKey>  (48) 
OEQGCPVZQODIIE-UHFFFAOYSA-N

$$$$
AC-REX-NH2 (Compound 4 / Cytosine REX NH2 Acetal)
     RDKit          2D

 20 20  0  0  0  0  0  0  0  0999 V2000
   -6.5142    0.9339    0.0000 C   0  0  0  0  0  0  0  0  0  0  0  0
   -5.0147    0.9732    0.0000 C   0  0  0  0  0  0  0  0  0  0  0  0
   -4.2309   -0.3058    0.0000 O   0  0  0  0  0  0  0  0  0  0  0  0
   -2.7315   -0.2665    0.0000 C   0  0  0  0  0  0  0  0  0  0  0  0
   -1.9477   -1.5454    0.0000 C   0  0  0  0  0  0  0  0  0  0  0  0
   -0.4482   -1.5062    0.0000 N   0  0  0  0  0  0  0  0  0  0  0  0
    0.2675   -0.1879    0.0000 C   0  0  0  0  0  0  0  0  0  0  0  0
    1.7670   -0.1486    0.0000 C   0  0  0  0  0  0  0  0  0  0  0  0
    2.4827    1.1696    0.0000 C   0  0  0  0  0  0  0  0  0  0  0  0
    3.9822    1.2089    0.0000 C   0  0  0  0  0  0  0  0  0  0  0  0
    4.6979    2.5272    0.0000 C   0  0  0  0  0  0  0  0  0  0  0  0
    6.1974    2.5664    0.0000 N   0  0  0  0  0  0  0  0  0  0  0  0
    2.5508   -1.4276    0.0000 C   0  0  0  0  0  0  0  0  0  0  0  0
    4.0503   -1.3883    0.0000 N   0  0  0  0  0  0  0  0  0  0  0  0
    1.8351   -2.7458    0.0000 N   0  0  0  0  0  0  0  0  0  0  0  0
    0.3356   -2.7851    0.0000 C   0  0  0  0  0  0  0  0  0  0  0  0
   -0.3801   -4.1033    0.0000 O   0  0  0  0  0  0  0  0  0  0  0  0
   -2.0157    1.0517    0.0000 O   0  0  0  0  0  0  0  0  0  0  0  0
   -2.7995    2.3307    0.0000 C   0  0  0  0  0  0  0  0  0  0  0  0
   -2.0838    3.6489    0.0000 C   0  0  0  0  0  0  0  0  0  0  0  0
  1  2  1  0
  2  3  1  0
  3  4  1  0
  4  5  1  0
  5  6  1  0
  6  7  1  0
  7  8  2  0
  8  9  1  0
  9 10  1  0
 10 11  1  0
 11 12  1  0
  8 13  1  0
 13 14  1  0
 13 15  2  0
 15 16  1  0
 16 17  2  0
  4 18  1  0
 18 19  1  0
 19 20  1  0
 16  6  1  0
M  END
>  <ID>  (49) 
DST-SMT-007

>  <Name>  (49) 
AC-REX-NH2 (Compound 4 / Cytosine REX NH2 Acetal)

>  <Primary_Group>  (49) 
6. SMART Probe Synthetic Intermediates & Reagents (PT-SQ-001)

>  <Formula>  (49) 
C13H24N4O3

>  <Molecular_Weight>  (49) 
284.36

>  <Exact_Mass>  (49) 
284.1848

>  <IUPAC_Name>  (49) 
4-amino-5-(3-aminopropyl)-1-(2,2-diethoxyethyl)pyrimidin-2(1H)-one

>  <SMILES>  (49) 
CCOC(CN1C=C(CCCN)C(N)=NC1=O)OCC

>  <Functional_Role>  (49) 
Key deprotected nucleophilic primary amine (MW 284.36 Da) used as master platform for all SMART Cytosine labeling (Step 4).

>  <Source_Document>  (49) 
PT-SQ-001 Paso 4 & Paso 5 (Table 6)

>  <InChI>  (49) 
InChI=1S/C13H24N4O3/c1-3-19-11(20-4-2)9-17-8-10(6-5-7-14)12(15)16-13(17)18/h8,11H,3-7,9,14H2,1-2H3,(H2,15,16,18)

>  <InChIKey>  (49) 
IZXGAMFTFHNHJA-UHFFFAOYSA-N

$$$$
NHS-PEG12-Biotin (Biotin-dPEG12-NHS Ester)
     RDKit          2D

 64 66  0  0  0  0  0  0  0  0999 V2000
   30.4488   -1.4462    0.0000 O   0  0  0  0  0  0  0  0  0  0  0  0
   29.1667   -0.6676    0.0000 C   0  0  0  0  0  0  0  0  0  0  0  0
   29.1999    0.8321    0.0000 O   0  0  0  0  0  0  0  0  0  0  0  0
   30.5152    1.5531    0.0000 N   0  0  0  0  0  0  0  0  0  0  0  0
   30.7050    3.0411    0.0000 C   0  0  0  0  0  0  0  0  0  0  0  0
   29.6128    4.0692    0.0000 O   0  0  0  0  0  0  0  0  0  0  0  0
   32.1788    3.3204    0.0000 C   0  0  0  0  0  0  0  0  0  0  0  0
   32.8999    2.0050    0.0000 C   0  0  0  0  0  0  0  0  0  0  0  0
   31.8717    0.9128    0.0000 C   0  0  0  0  0  0  0  0  0  0  0  0
   32.1510   -0.5610    0.0000 O   0  0  0  0  0  0  0  0  0  0  0  0
   27.8514   -1.3886    0.0000 C   0  0  0  0  0  0  0  0  0  0  0  0
   26.5693   -0.6100    0.0000 C   0  0  0  0  0  0  0  0  0  0  0  0
   25.2539   -1.3311    0.0000 O   0  0  0  0  0  0  0  0  0  0  0  0
   23.9718   -0.5525    0.0000 C   0  0  0  0  0  0  0  0  0  0  0  0
   22.6565   -1.2736    0.0000 C   0  0  0  0  0  0  0  0  0  0  0  0
   21.3744   -0.4950    0.0000 O   0  0  0  0  0  0  0  0  0  0  0  0
   20.0591   -1.2160    0.0000 C   0  0  0  0  0  0  0  0  0  0  0  0
   18.7769   -0.4375    0.0000 C   0  0  0  0  0  0  0  0  0  0  0  0
   17.4616   -1.1585    0.0000 O   0  0  0  0  0  0  0  0  0  0  0  0
   16.1795   -0.3799    0.0000 C   0  0  0  0  0  0  0  0  0  0  0  0
   14.8642   -1.1010    0.0000 C   0  0  0  0  0  0  0  0  0  0  0  0
   13.5821   -0.3224    0.0000 O   0  0  0  0  0  0  0  0  0  0  0  0
   12.2667   -1.0435    0.0000 C   0  0  0  0  0  0  0  0  0  0  0  0
   10.9846   -0.2649    0.0000 C   0  0  0  0  0  0  0  0  0  0  0  0
    9.6693   -0.9859    0.0000 O   0  0  0  0  0  0  0  0  0  0  0  0
    8.3872   -0.2073    0.0000 C   0  0  0  0  0  0  0  0  0  0  0  0
    7.0719   -0.9284    0.0000 C   0  0  0  0  0  0  0  0  0  0  0  0
    5.7898   -0.1498    0.0000 O   0  0  0  0  0  0  0  0  0  0  0  0
    4.4744   -0.8709    0.0000 C   0  0  0  0  0  0  0  0  0  0  0  0
    3.1923   -0.0923    0.0000 C   0  0  0  0  0  0  0  0  0  0  0  0
    1.8770   -0.8133    0.0000 O   0  0  0  0  0  0  0  0  0  0  0  0
    0.5949   -0.0348    0.0000 C   0  0  0  0  0  0  0  0  0  0  0  0
   -0.7205   -0.7558    0.0000 C   0  0  0  0  0  0  0  0  0  0  0  0
   -2.0026    0.0228    0.0000 O   0  0  0  0  0  0  0  0  0  0  0  0
   -3.3179   -0.6983    0.0000 C   0  0  0  0  0  0  0  0  0  0  0  0
   -4.6000    0.0803    0.0000 C   0  0  0  0  0  0  0  0  0  0  0  0
   -5.9153   -0.6408    0.0000 O   0  0  0  0  0  0  0  0  0  0  0  0
   -7.1974    0.1378    0.0000 C   0  0  0  0  0  0  0  0  0  0  0  0
   -8.5128   -0.5832    0.0000 C   0  0  0  0  0  0  0  0  0  0  0  0
   -9.7949    0.1954    0.0000 O   0  0  0  0  0  0  0  0  0  0  0  0
  -11.1102   -0.5257    0.0000 C   0  0  0  0  0  0  0  0  0  0  0  0
  -12.3923    0.2529    0.0000 C   0  0  0  0  0  0  0  0  0  0  0  0
  -13.7076   -0.4682    0.0000 O   0  0  0  0  0  0  0  0  0  0  0  0
  -14.9898    0.3104    0.0000 C   0  0  0  0  0  0  0  0  0  0  0  0
  -16.3051   -0.4106    0.0000 C   0  0  0  0  0  0  0  0  0  0  0  0
  -17.5872    0.3679    0.0000 O   0  0  0  0  0  0  0  0  0  0  0  0
  -18.9025   -0.3531    0.0000 C   0  0  0  0  0  0  0  0  0  0  0  0
  -20.1846    0.4255    0.0000 C   0  0  0  0  0  0  0  0  0  0  0  0
  -21.5000   -0.2956    0.0000 N   0  0  0  0  0  0  0  0  0  0  0  0
  -22.7821    0.4830    0.0000 C   0  0  0  0  0  0  0  0  0  0  0  0
  -22.7489    1.9826    0.0000 O   0  0  0  0  0  0  0  0  0  0  0  0
  -24.0974   -0.2381    0.0000 C   0  0  0  0  0  0  0  0  0  0  0  0
  -25.3795    0.5405    0.0000 C   0  0  0  0  0  0  0  0  0  0  0  0
  -26.6948   -0.1805    0.0000 C   0  0  0  0  0  0  0  0  0  0  0  0
  -27.9770    0.5981    0.0000 C   0  0  0  0  0  0  0  0  0  0  0  0
  -29.2923   -0.1230    0.0000 C   0  0  0  0  0  0  0  0  0  0  0  0
  -29.4821   -1.6109    0.0000 S   0  0  0  0  0  0  0  0  0  0  0  0
  -30.9558   -1.8902    0.0000 C   0  0  0  0  0  0  0  0  0  0  0  0
  -31.6769   -0.5749    0.0000 C   0  0  0  0  0  0  0  0  0  0  0  0
  -33.0334    0.0654    0.0000 N   0  0  0  0  0  0  0  0  0  0  0  0
  -32.8436    1.5533    0.0000 C   0  0  0  0  0  0  0  0  0  0  0  0
  -33.9358    2.5815    0.0000 O   0  0  0  0  0  0  0  0  0  0  0  0
  -31.3698    1.8326    0.0000 N   0  0  0  0  0  0  0  0  0  0  0  0
  -30.6488    0.5173    0.0000 C   0  0  0  0  0  0  0  0  0  0  0  0
  1  2  2  0
  2  3  1  0
  3  4  1  0
  4  5  1  0
  5  6  2  0
  5  7  1  0
  7  8  1  0
  8  9  1  0
  9 10  2  0
  2 11  1  0
 11 12  1  0
 12 13  1  0
 13 14  1  0
 14 15  1  0
 15 16  1  0
 16 17  1  0
 17 18  1  0
 18 19  1  0
 19 20  1  0
 20 21  1  0
 21 22  1  0
 22 23  1  0
 23 24  1  0
 24 25  1  0
 25 26  1  0
 26 27  1  0
 27 28  1  0
 28 29  1  0
 29 30  1  0
 30 31  1  0
 31 32  1  0
 32 33  1  0
 33 34  1  0
 34 35  1  0
 35 36  1  0
 36 37  1  0
 37 38  1  0
 38 39  1  0
 39 40  1  0
 40 41  1  0
 41 42  1  0
 42 43  1  0
 43 44  1  0
 44 45  1  0
 45 46  1  0
 46 47  1  0
 47 48  1  0
 48 49  1  0
 49 50  1  0
 50 51  2  0
 50 52  1  0
 52 53  1  0
 53 54  1  0
 54 55  1  0
 56 55  1  6
 56 57  1  0
 57 58  1  0
 59 58  1  6
 59 60  1  0
 60 61  1  0
 61 62  2  0
 61 63  1  0
 64 63  1  6
  9  4  1  0
 64 56  1  0
 64 59  1  0
M  END
>  <ID>  (50) 
DST-SMT-008

>  <Name>  (50) 
NHS-PEG12-Biotin (Biotin-dPEG12-NHS Ester)

>  <Primary_Group>  (50) 
6. SMART Probe Synthetic Intermediates & Reagents (PT-SQ-001)

>  <Formula>  (50) 
C41H72N4O18S

>  <Molecular_Weight>  (50) 
941.1

>  <Exact_Mass>  (50) 
940.4562

>  <IUPAC_Name>  (50) 
2,5-dioxopyrrolidin-1-yl 1-(5-((3aS,4S,6aR)-2-oxohexahydro-1H-thieno[3,4-d]imidazol-4-yl)pentanamido)-3,6,9,12,15,18,21,24,27,30,33,36-dodecaoxanonatriacontan-39-oate

>  <SMILES>  (50) 
O=C(ON1C(=O)CCC1=O)CCOCCOCCOCCOCCOCCOCCOCCOCCOCCOCCOCCOCCNC(=O)CCCC[C@@H]2SC[C@@H]3NC(=O)N[C@H]23

>  <Functional_Role>  (50) 
Monodisperse discrete PEG12 biotin active ester (MW 941.09 Da) for quantitative labeling of AC-REX-NH2 in Step 5.

>  <CAS_Number>  (50) 
365441-71-0

>  <Source_Document>  (50) 
PT-SQ-001 Paso 5 (Table 6)

>  <InChI>  (50) 
InChI=1S/C41H72N4O18S/c46-36(4-2-1-3-35-40-34(33-64-35)43-41(50)44-40)42-8-10-52-12-14-54-16-18-56-20-22-58-24-26-60-28-30-62-32-31-61-29-27-59-25-23-57-21-19-55-17-15-53-13-11-51-9-7-39(49)63-45-37(47)5-6-38(45)48/h34-35,40H,1-33H2,(H,42,46)(H2,43,44,50)/t34-,35-,40-/m0/s1

>  <InChIKey>  (50) 
WOLXSUFTTIRQOU-BVCQTOFBSA-N

$$$$
AC-RP12-B (Compound 5 / Acetal Cytosine-REX-PEG12-Biotin)
     RDKit          2D

 76 78  0  0  0  0  0  0  0  0999 V2000
   28.6458   -7.0359    0.0000 C   0  0  0  0  0  0  0  0  0  0  0  0
   28.5954   -5.5368    0.0000 C   0  0  0  0  0  0  0  0  0  0  0  0
   29.8685   -4.7436    0.0000 O   0  0  0  0  0  0  0  0  0  0  0  0
   29.8182   -3.2444    0.0000 C   0  0  0  0  0  0  0  0  0  0  0  0
   31.0913   -2.4512    0.0000 C   0  0  0  0  0  0  0  0  0  0  0  0
   31.0409   -0.9521    0.0000 N   0  0  0  0  0  0  0  0  0  0  0  0
   29.7174   -0.2461    0.0000 C   0  0  0  0  0  0  0  0  0  0  0  0
   29.6671    1.2530    0.0000 C   0  0  0  0  0  0  0  0  0  0  0  0
   28.3436    1.9590    0.0000 C   0  0  0  0  0  0  0  0  0  0  0  0
   27.0705    1.1658    0.0000 C   0  0  0  0  0  0  0  0  0  0  0  0
   25.7470    1.8718    0.0000 C   0  0  0  0  0  0  0  0  0  0  0  0
   24.4738    1.0786    0.0000 N   0  0  0  0  0  0  0  0  0  0  0  0
   23.1504    1.7845    0.0000 C   0  0  0  0  0  0  0  0  0  0  0  0
   23.1000    3.2837    0.0000 O   0  0  0  0  0  0  0  0  0  0  0  0
   21.8772    0.9914    0.0000 C   0  0  0  0  0  0  0  0  0  0  0  0
   20.5537    1.6973    0.0000 C   0  0  0  0  0  0  0  0  0  0  0  0
   19.2806    0.9041    0.0000 O   0  0  0  0  0  0  0  0  0  0  0  0
   17.9571    1.6101    0.0000 C   0  0  0  0  0  0  0  0  0  0  0  0
   16.6840    0.8169    0.0000 C   0  0  0  0  0  0  0  0  0  0  0  0
   15.3605    1.5229    0.0000 O   0  0  0  0  0  0  0  0  0  0  0  0
   14.0874    0.7297    0.0000 C   0  0  0  0  0  0  0  0  0  0  0  0
   12.7639    1.4356    0.0000 C   0  0  0  0  0  0  0  0  0  0  0  0
   11.4908    0.6424    0.0000 O   0  0  0  0  0  0  0  0  0  0  0  0
   10.1673    1.3484    0.0000 C   0  0  0  0  0  0  0  0  0  0  0  0
    8.8942    0.5552    0.0000 C   0  0  0  0  0  0  0  0  0  0  0  0
    7.5707    1.2612    0.0000 O   0  0  0  0  0  0  0  0  0  0  0  0
    6.2976    0.4680    0.0000 C   0  0  0  0  0  0  0  0  0  0  0  0
    4.9741    1.1739    0.0000 C   0  0  0  0  0  0  0  0  0  0  0  0
    3.7010    0.3807    0.0000 O   0  0  0  0  0  0  0  0  0  0  0  0
    2.3775    1.0867    0.0000 C   0  0  0  0  0  0  0  0  0  0  0  0
    1.1043    0.2935    0.0000 C   0  0  0  0  0  0  0  0  0  0  0  0
   -0.2191    0.9995    0.0000 O   0  0  0  0  0  0  0  0  0  0  0  0
   -1.4923    0.2063    0.0000 C   0  0  0  0  0  0  0  0  0  0  0  0
   -2.8158    0.9123    0.0000 C   0  0  0  0  0  0  0  0  0  0  0  0
   -4.0889    0.1191    0.0000 O   0  0  0  0  0  0  0  0  0  0  0  0
   -5.4124    0.8250    0.0000 C   0  0  0  0  0  0  0  0  0  0  0  0
   -6.6855    0.0318    0.0000 C   0  0  0  0  0  0  0  0  0  0  0  0
   -8.0090    0.7378    0.0000 O   0  0  0  0  0  0  0  0  0  0  0  0
   -9.2821   -0.0554    0.0000 C   0  0  0  0  0  0  0  0  0  0  0  0
  -10.6056    0.6506    0.0000 C   0  0  0  0  0  0  0  0  0  0  0  0
  -11.8787   -0.1426    0.0000 O   0  0  0  0  0  0  0  0  0  0  0  0
  -13.2022    0.5633    0.0000 C   0  0  0  0  0  0  0  0  0  0  0  0
  -14.4753   -0.2299    0.0000 C   0  0  0  0  0  0  0  0  0  0  0  0
  -15.7988    0.4761    0.0000 O   0  0  0  0  0  0  0  0  0  0  0  0
  -17.0719   -0.3171    0.0000 C   0  0  0  0  0  0  0  0  0  0  0  0
  -18.3954    0.3889    0.0000 C   0  0  0  0  0  0  0  0  0  0  0  0
  -19.6686   -0.4043    0.0000 O   0  0  0  0  0  0  0  0  0  0  0  0
  -20.9920    0.3016    0.0000 C   0  0  0  0  0  0  0  0  0  0  0  0
  -22.2652   -0.4915    0.0000 C   0  0  0  0  0  0  0  0  0  0  0  0
  -23.5886    0.2144    0.0000 O   0  0  0  0  0  0  0  0  0  0  0  0
  -24.8618   -0.5788    0.0000 C   0  0  0  0  0  0  0  0  0  0  0  0
  -26.1853    0.1272    0.0000 C   0  0  0  0  0  0  0  0  0  0  0  0
  -27.4584   -0.6660    0.0000 N   0  0  0  0  0  0  0  0  0  0  0  0
  -28.7819    0.0400    0.0000 C   0  0  0  0  0  0  0  0  0  0  0  0
  -28.8322    1.5391    0.0000 O   0  0  0  0  0  0  0  0  0  0  0  0
  -30.0550   -0.7532    0.0000 C   0  0  0  0  0  0  0  0  0  0  0  0
  -31.3785   -0.0473    0.0000 C   0  0  0  0  0  0  0  0  0  0  0  0
  -32.6516   -0.8405    0.0000 C   0  0  0  0  0  0  0  0  0  0  0  0
  -33.9751   -0.1345    0.0000 C   0  0  0  0  0  0  0  0  0  0  0  0
  -35.2482   -0.9277    0.0000 C   0  0  0  0  0  0  0  0  0  0  0  0
  -35.3548   -2.4239    0.0000 S   0  0  0  0  0  0  0  0  0  0  0  0
  -36.8108   -2.7849    0.0000 C   0  0  0  0  0  0  0  0  0  0  0  0
  -37.6040   -1.5117    0.0000 C   0  0  0  0  0  0  0  0  0  0  0  0
  -38.9940   -0.9480    0.0000 N   0  0  0  0  0  0  0  0  0  0  0  0
  -38.8874    0.5482    0.0000 C   0  0  0  0  0  0  0  0  0  0  0  0
  -40.0352    1.5139    0.0000 O   0  0  0  0  0  0  0  0  0  0  0  0
  -37.4314    0.9092    0.0000 N   0  0  0  0  0  0  0  0  0  0  0  0
  -36.6382   -0.3639    0.0000 C   0  0  0  0  0  0  0  0  0  0  0  0
   30.9402    2.0462    0.0000 C   0  0  0  0  0  0  0  0  0  0  0  0
   30.8898    3.5454    0.0000 N   0  0  0  0  0  0  0  0  0  0  0  0
   32.2637    1.3403    0.0000 N   0  0  0  0  0  0  0  0  0  0  0  0
   32.3140   -0.1589    0.0000 C   0  0  0  0  0  0  0  0  0  0  0  0
   33.6375   -0.8648    0.0000 O   0  0  0  0  0  0  0  0  0  0  0  0
   28.4947   -2.5385    0.0000 O   0  0  0  0  0  0  0  0  0  0  0  0
   27.2215   -3.3316    0.0000 C   0  0  0  0  0  0  0  0  0  0  0  0
   25.8981   -2.6257    0.0000 C   0  0  0  0  0  0  0  0  0  0  0  0
  1  2  1  0
  2  3  1  0
  3  4  1  0
  4  5  1  0
  5  6  1  0
  6  7  1  0
  7  8  2  0
  8  9  1  0
  9 10  1  0
 10 11  1  0
 11 12  1  0
 12 13  1  0
 13 14  2  0
 13 15  1  0
 15 16  1  0
 16 17  1  0
 17 18  1  0
 18 19  1  0
 19 20  1  0
 20 21  1  0
 21 22  1  0
 22 23  1  0
 23 24  1  0
 24 25  1  0
 25 26  1  0
 26 27  1  0
 27 28  1  0
 28 29  1  0
 29 30  1  0
 30 31  1  0
 31 32  1  0
 32 33  1  0
 33 34  1  0
 34 35  1  0
 35 36  1  0
 36 37  1  0
 37 38  1  0
 38 39  1  0
 39 40  1  0
 40 41  1  0
 41 42  1  0
 42 43  1  0
 43 44  1  0
 44 45  1  0
 45 46  1  0
 46 47  1  0
 47 48  1  0
 48 49  1  0
 49 50  1  0
 50 51  1  0
 51 52  1  0
 52 53  1  0
 53 54  1  0
 54 55  2  0
 54 56  1  0
 56 57  1  0
 57 58  1  0
 58 59  1  0
 60 59  1  6
 60 61  1  0
 61 62  1  0
 63 62  1  6
 63 64  1  0
 64 65  1  0
 65 66  2  0
 65 67  1  0
 68 67  1  6
  8 69  1  0
 69 70  1  0
 69 71  2  0
 71 72  1  0
 72 73  2  0
  4 74  1  0
 74 75  1  0
 75 76  1  0
 72  6  1  0
 68 60  1  0
 68 63  1  0
M  END
>  <ID>  (51) 
DST-SMT-009

>  <Name>  (51) 
AC-RP12-B (Compound 5 / Acetal Cytosine-REX-PEG12-Biotin)

>  <Primary_Group>  (51) 
6. SMART Probe Synthetic Intermediates & Reagents (PT-SQ-001)

>  <Formula>  (51) 
C50H91N7O18S

>  <Molecular_Weight>  (51) 
1110.38

>  <Exact_Mass>  (51) 
1109.6141

>  <IUPAC_Name>  (51) 
N-(3-(4-amino-1-(2,2-diethoxyethyl)-2-oxo-1,2-dihydropyrimidin-5-yl)propyl)-1-(5-((3aS,4S,6aR)-2-oxohexahydro-1H-thieno[3,4-d]imidazol-4-yl)pentanamido)-3,6,9,12,15,18,21,24,27,30,33,36-dodecaoxanonatriacontan-39-amide

>  <SMILES>  (51) 
CCOC(CN1C=C(CCCNC(=O)CCOCCOCCOCCOCCOCCOCCOCCOCCOCCOCCOCCOCCNC(=O)CCCC[C@@H]2SC[C@@H]3NC(=O)N[C@H]23)C(N)=NC1=O)OCC

>  <Functional_Role>  (51) 
Full conjugate acetal intermediate (MW 1110.37 Da) prior to final aqueous TFA deprotection to generate the active aldehyde (Step 5).

>  <Source_Document>  (51) 
PT-SQ-001 Paso 5 & Paso 6 (Table 7)

>  <InChI>  (51) 
InChI=1S/C50H91N7O18S/c1-3-74-46(75-4-2)39-57-38-41(48(51)56-50(57)61)8-7-12-52-45(59)11-14-62-16-18-64-20-22-66-24-26-68-28-30-70-32-34-72-36-37-73-35-33-71-31-29-69-27-25-67-23-21-65-19-17-63-15-13-53-44(58)10-6-5-9-43-47-42(40-76-43)54-49(60)55-47/h38,42-43,46-47H,3-37,39-40H2,1-2H3,(H,52,59)(H,53,58)(H2,51,56,61)(H2,54,55,60)/t42-,43-,47-/m0/s1

>  <InChIKey>  (51) 
FBTVQKWFNVVSJJ-DPPJWZTGSA-N

$$$$
Fmoc-L-Glu(OtBu)-ol
     RDKit          2D

 30 32  0  0  0  0  0  0  0  0999 V2000
   -9.8208   -0.8214    0.0000 C   0  0  0  0  0  0  0  0  0  0  0  0
   -8.9956    0.4312    0.0000 C   0  0  0  0  0  0  0  0  0  0  0  0
   -8.1704    1.6838    0.0000 C   0  0  0  0  0  0  0  0  0  0  0  0
  -10.2483    1.2564    0.0000 C   0  0  0  0  0  0  0  0  0  0  0  0
   -7.7430   -0.3940    0.0000 O   0  0  0  0  0  0  0  0  0  0  0  0
   -6.4021    0.2782    0.0000 C   0  0  0  0  0  0  0  0  0  0  0  0
   -6.3137    1.7756    0.0000 O   0  0  0  0  0  0  0  0  0  0  0  0
   -5.1494   -0.5470    0.0000 C   0  0  0  0  0  0  0  0  0  0  0  0
   -3.8085    0.1252    0.0000 C   0  0  0  0  0  0  0  0  0  0  0  0
   -2.5559   -0.7000    0.0000 C   0  0  0  0  0  0  0  0  0  0  0  0
   -2.6442   -2.1974    0.0000 C   0  0  0  0  0  0  0  0  0  0  0  0
   -3.9852   -2.8696    0.0000 O   0  0  0  0  0  0  0  0  0  0  0  0
   -1.2149   -0.0278    0.0000 N   0  0  0  0  0  0  0  0  0  0  0  0
    0.0377   -0.8530    0.0000 C   0  0  0  0  0  0  0  0  0  0  0  0
   -0.0506   -2.3504    0.0000 O   0  0  0  0  0  0  0  0  0  0  0  0
    1.3786   -0.1808    0.0000 O   0  0  0  0  0  0  0  0  0  0  0  0
    2.6313   -1.0060    0.0000 C   0  0  0  0  0  0  0  0  0  0  0  0
    3.9722   -0.3338    0.0000 C   0  0  0  0  0  0  0  0  0  0  0  0
    5.3042   -1.0235    0.0000 C   0  0  0  0  0  0  0  0  0  0  0  0
    5.6829   -2.4749    0.0000 C   0  0  0  0  0  0  0  0  0  0  0  0
    7.1292   -2.8727    0.0000 C   0  0  0  0  0  0  0  0  0  0  0  0
    8.1968   -1.8190    0.0000 C   0  0  0  0  0  0  0  0  0  0  0  0
    7.8181   -0.3676    0.0000 C   0  0  0  0  0  0  0  0  0  0  0  0
    6.3718    0.0302    0.0000 C   0  0  0  0  0  0  0  0  0  0  0  0
    5.6996    1.3711    0.0000 C   0  0  0  0  0  0  0  0  0  0  0  0
    6.2463    2.7679    0.0000 C   0  0  0  0  0  0  0  0  0  0  0  0
    5.3100    3.9398    0.0000 C   0  0  0  0  0  0  0  0  0  0  0  0
    3.8270    3.7149    0.0000 C   0  0  0  0  0  0  0  0  0  0  0  0
    3.2803    2.3181    0.0000 C   0  0  0  0  0  0  0  0  0  0  0  0
    4.2166    1.1462    0.0000 C   0  0  0  0  0  0  0  0  0  0  0  0
  1  2  1  0
  2  3  1  0
  2  4  1  0
  2  5  1  0
  5  6  1  0
  6  7  2  0
  6  8  1  0
  8  9  1  0
 10  9  1  6
 10 11  1  0
 11 12  1  0
 10 13  1  0
 13 14  1  0
 14 15  2  0
 14 16  1  0
 16 17  1  0
 17 18  1  0
 18 19  1  0
 19 20  2  0
 20 21  1  0
 21 22  2  0
 22 23  1  0
 23 24  2  0
 24 25  1  0
 25 26  2  0
 26 27  1  0
 27 28  2  0
 28 29  1  0
 29 30  2  0
 30 18  1  0
 24 19  1  0
 30 25  1  0
M  END
>  <ID>  (52) 
DST-GLU-001

>  <Name>  (52) 
Fmoc-L-Glu(OtBu)-ol

>  <Primary_Group>  (52) 
7. γ-Chiral Glutamic PNA Platform (PS_Gamma Glu & SOP_EE)

>  <Formula>  (52) 
C24H29NO5

>  <Molecular_Weight>  (52) 
411.5

>  <Exact_Mass>  (52) 
411.2046

>  <IUPAC_Name>  (52) 
(S)-tert-butyl 4-((((9H-fluoren-9-yl)methoxy)carbonyl)amino)-5-hydroxypentanoate

>  <SMILES>  (52) 
CC(C)(C)OC(=O)CC[C@@H](CO)NC(=O)OCC1c2ccccc2-c3ccccc31

>  <Functional_Role>  (52) 
Commercial enantiopure L-amino alcohol starting material for chiral γ-L-Glu PNA backbone synthesis.

>  <CAS_Number>  (52) 
153815-59-9

>  <Source_Document>  (52) 
PS_Gamma Glu Monomers Step 1

>  <InChI>  (52) 
InChI=1S/C24H29NO5/c1-24(2,3)30-22(27)13-12-16(14-26)25-23(28)29-15-21-19-10-6-4-8-17(19)18-9-5-7-11-20(18)21/h4-11,16,21,26H,12-15H2,1-3H3,(H,25,28)/t16-/m0/s1

>  <InChIKey>  (52) 
XYRSVJWUWKIUAA-INIZCTEOSA-N

$$$$
DGSL-Fmoc-L-Glu(OtBu)-H
     RDKit          2D

 30 32  0  0  0  0  0  0  0  0999 V2000
   -9.8208   -0.8214    0.0000 C   0  0  0  0  0  0  0  0  0  0  0  0
   -8.9956    0.4312    0.0000 C   0  0  0  0  0  0  0  0  0  0  0  0
   -8.1704    1.6838    0.0000 C   0  0  0  0  0  0  0  0  0  0  0  0
  -10.2483    1.2564    0.0000 C   0  0  0  0  0  0  0  0  0  0  0  0
   -7.7430   -0.3940    0.0000 O   0  0  0  0  0  0  0  0  0  0  0  0
   -6.4021    0.2782    0.0000 C   0  0  0  0  0  0  0  0  0  0  0  0
   -6.3137    1.7756    0.0000 O   0  0  0  0  0  0  0  0  0  0  0  0
   -5.1494   -0.5470    0.0000 C   0  0  0  0  0  0  0  0  0  0  0  0
   -3.8085    0.1252    0.0000 C   0  0  0  0  0  0  0  0  0  0  0  0
   -2.5559   -0.7000    0.0000 C   0  0  0  0  0  0  0  0  0  0  0  0
   -2.6442   -2.1974    0.0000 C   0  0  0  0  0  0  0  0  0  0  0  0
   -3.9852   -2.8696    0.0000 O   0  0  0  0  0  0  0  0  0  0  0  0
   -1.2149   -0.0278    0.0000 N   0  0  0  0  0  0  0  0  0  0  0  0
    0.0377   -0.8530    0.0000 C   0  0  0  0  0  0  0  0  0  0  0  0
   -0.0506   -2.3504    0.0000 O   0  0  0  0  0  0  0  0  0  0  0  0
    1.3786   -0.1808    0.0000 O   0  0  0  0  0  0  0  0  0  0  0  0
    2.6313   -1.0060    0.0000 C   0  0  0  0  0  0  0  0  0  0  0  0
    3.9722   -0.3338    0.0000 C   0  0  0  0  0  0  0  0  0  0  0  0
    5.3042   -1.0235    0.0000 C   0  0  0  0  0  0  0  0  0  0  0  0
    5.6829   -2.4749    0.0000 C   0  0  0  0  0  0  0  0  0  0  0  0
    7.1292   -2.8727    0.0000 C   0  0  0  0  0  0  0  0  0  0  0  0
    8.1968   -1.8190    0.0000 C   0  0  0  0  0  0  0  0  0  0  0  0
    7.8181   -0.3676    0.0000 C   0  0  0  0  0  0  0  0  0  0  0  0
    6.3718    0.0302    0.0000 C   0  0  0  0  0  0  0  0  0  0  0  0
    5.6996    1.3711    0.0000 C   0  0  0  0  0  0  0  0  0  0  0  0
    6.2463    2.7679    0.0000 C   0  0  0  0  0  0  0  0  0  0  0  0
    5.3100    3.9398    0.0000 C   0  0  0  0  0  0  0  0  0  0  0  0
    3.8270    3.7149    0.0000 C   0  0  0  0  0  0  0  0  0  0  0  0
    3.2803    2.3181    0.0000 C   0  0  0  0  0  0  0  0  0  0  0  0
    4.2166    1.1462    0.0000 C   0  0  0  0  0  0  0  0  0  0  0  0
  1  2  1  0
  2  3  1  0
  2  4  1  0
  2  5  1  0
  5  6  1  0
  6  7  2  0
  6  8  1  0
  8  9  1  0
 10  9  1  6
 10 11  1  0
 11 12  2  0
 10 13  1  0
 13 14  1  0
 14 15  2  0
 14 16  1  0
 16 17  1  0
 17 18  1  0
 18 19  1  0
 19 20  2  0
 20 21  1  0
 21 22  2  0
 22 23  1  0
 23 24  2  0
 24 25  1  0
 25 26  2  0
 26 27  1  0
 27 28  2  0
 28 29  1  0
 29 30  2  0
 30 18  1  0
 24 19  1  0
 30 25  1  0
M  END
>  <ID>  (53) 
DST-GLU-002

>  <Name>  (53) 
DGSL-Fmoc-L-Glu(OtBu)-H

>  <Primary_Group>  (53) 
7. γ-Chiral Glutamic PNA Platform (PS_Gamma Glu & SOP_EE)

>  <Formula>  (53) 
C24H27NO5

>  <Molecular_Weight>  (53) 
409.48

>  <Exact_Mass>  (53) 
409.1889

>  <IUPAC_Name>  (53) 
(S)-tert-butyl 4-((((9H-fluoren-9-yl)methoxy)carbonyl)amino)-5-oxopentanoate

>  <SMILES>  (53) 
CC(C)(C)OC(=O)CC[C@@H](C=O)NC(=O)OCC1c2ccccc2-c3ccccc31

>  <Functional_Role>  (53) 
Chiral α-amino aldehyde generated via Dess-Martin oxidation maintaining 100% enantiomeric excess (Step 1).

>  <Source_Document>  (53) 
PS_Gamma Glu Monomers Step 1 & SOP_EE

>  <InChI>  (53) 
InChI=1S/C24H27NO5/c1-24(2,3)30-22(27)13-12-16(14-26)25-23(28)29-15-21-19-10-6-4-8-17(19)18-9-5-7-11-20(18)21/h4-11,14,16,21H,12-13,15H2,1-3H3,(H,25,28)/t16-/m0/s1

>  <InChIKey>  (53) 
BCIPGSZQUDLGSY-INIZCTEOSA-N

$$$$
γ-L-Glutamic Backbone (DGSL-g-Glu-PNA-COOMe)
     RDKit          2D

 35 37  0  0  0  0  0  0  0  0999 V2000
   -8.9198    1.2475    0.0000 C   0  0  0  0  0  0  0  0  0  0  0  0
   -7.9241    2.3694    0.0000 C   0  0  0  0  0  0  0  0  0  0  0  0
   -6.9284    3.4912    0.0000 C   0  0  0  0  0  0  0  0  0  0  0  0
   -9.0460    3.3650    0.0000 C   0  0  0  0  0  0  0  0  0  0  0  0
   -6.8022    1.3737    0.0000 O   0  0  0  0  0  0  0  0  0  0  0  0
   -5.3790    1.8474    0.0000 C   0  0  0  0  0  0  0  0  0  0  0  0
   -5.0777    3.3169    0.0000 O   0  0  0  0  0  0  0  0  0  0  0  0
   -4.2571    0.8518    0.0000 C   0  0  0  0  0  0  0  0  0  0  0  0
   -2.8339    1.3255    0.0000 C   0  0  0  0  0  0  0  0  0  0  0  0
   -1.7120    0.3298    0.0000 C   0  0  0  0  0  0  0  0  0  0  0  0
   -2.0133   -1.1396    0.0000 C   0  0  0  0  0  0  0  0  0  0  0  0
   -3.4365   -1.6133    0.0000 N   0  0  0  0  0  0  0  0  0  0  0  0
   -3.7379   -3.0828    0.0000 C   0  0  0  0  0  0  0  0  0  0  0  0
   -5.1611   -3.5565    0.0000 C   0  0  0  0  0  0  0  0  0  0  0  0
   -6.2830   -2.5608    0.0000 O   0  0  0  0  0  0  0  0  0  0  0  0
   -5.4624   -5.0259    0.0000 O   0  0  0  0  0  0  0  0  0  0  0  0
   -6.8857   -5.4997    0.0000 C   0  0  0  0  0  0  0  0  0  0  0  0
   -0.2888    0.8036    0.0000 N   0  0  0  0  0  0  0  0  0  0  0  0
    0.8331   -0.1921    0.0000 C   0  0  0  0  0  0  0  0  0  0  0  0
    0.5318   -1.6615    0.0000 O   0  0  0  0  0  0  0  0  0  0  0  0
    2.2563    0.2817    0.0000 O   0  0  0  0  0  0  0  0  0  0  0  0
    3.3782   -0.7140    0.0000 C   0  0  0  0  0  0  0  0  0  0  0  0
    4.8015   -0.2403    0.0000 C   0  0  0  0  0  0  0  0  0  0  0  0
    6.0213   -1.1132    0.0000 C   0  0  0  0  0  0  0  0  0  0  0  0
    6.1888   -2.6038    0.0000 C   0  0  0  0  0  0  0  0  0  0  0  0
    7.5634   -3.2041    0.0000 C   0  0  0  0  0  0  0  0  0  0  0  0
    8.7706   -2.3137    0.0000 C   0  0  0  0  0  0  0  0  0  0  0  0
    8.6031   -0.8231    0.0000 C   0  0  0  0  0  0  0  0  0  0  0  0
    7.2284   -0.2229    0.0000 C   0  0  0  0  0  0  0  0  0  0  0  0
    6.7547    1.2004    0.0000 C   0  0  0  0  0  0  0  0  0  0  0  0
    7.4954    2.5047    0.0000 C   0  0  0  0  0  0  0  0  0  0  0  0
    6.7361    3.7984    0.0000 C   0  0  0  0  0  0  0  0  0  0  0  0
    5.2361    3.7876    0.0000 C   0  0  0  0  0  0  0  0  0  0  0  0
    4.4954    2.4832    0.0000 C   0  0  0  0  0  0  0  0  0  0  0  0
    5.2547    1.1896    0.0000 C   0  0  0  0  0  0  0  0  0  0  0  0
  1  2  1  0
  2  3  1  0
  2  4  1  0
  2  5  1  0
  5  6  1  0
  6  7  2  0
  6  8  1  0
  8  9  1  0
 10  9  1  6
 10 11  1  0
 11 12  1  0
 12 13  1  0
 13 14  1  0
 14 15  2  0
 14 16  1  0
 16 17  1  0
 10 18  1  0
 18 19  1  0
 19 20  2  0
 19 21  1  0
 21 22  1  0
 22 23  1  0
 23 24  1  0
 24 25  2  0
 25 26  1  0
 26 27  2  0
 27 28  1  0
 28 29  2  0
 29 30  1  0
 30 31  2  0
 31 32  1  0
 32 33  2  0
 33 34  1  0
 34 35  2  0
 35 23  1  0
 29 24  1  0
 35 30  1  0
M  END
>  <ID>  (54) 
DST-GLU-003

>  <Name>  (54) 
γ-L-Glutamic Backbone (DGSL-g-Glu-PNA-COOMe)

>  <Primary_Group>  (54) 
7. γ-Chiral Glutamic PNA Platform (PS_Gamma Glu & SOP_EE)

>  <Formula>  (54) 
C27H34N2O6

>  <Molecular_Weight>  (54) 
482.58

>  <Exact_Mass>  (54) 
482.2417

>  <IUPAC_Name>  (54) 
methyl N-((S)-2-((((9H-fluoren-9-yl)methoxy)carbonyl)amino)-4-(tert-butoxycarbonyl)butyl)glycinate

>  <SMILES>  (54) 
CC(C)(C)OC(=O)CC[C@@H](CNCC(=O)OC)NC(=O)OCC1c2ccccc2-c3ccccc31

>  <Functional_Role>  (54) 
Chiral (S)-L-glutamic pseudopeptide backbone (ee = 100%, Tr = 25.728 min on Cellulose-1 chiral HPLC) (Step 2).

>  <Source_Document>  (54) 
PS_Gamma Glu Monomers Step 2 & SOP_EE

>  <InChI>  (54) 
InChI=1S/C27H34N2O6/c1-27(2,3)35-24(30)14-13-18(15-28-16-25(31)33-4)29-26(32)34-17-23-21-11-7-5-9-19(21)20-10-6-8-12-22(20)23/h5-12,18,23,28H,13-17H2,1-4H3,(H,29,32)/t18-/m0/s1

>  <InChIKey>  (54) 
KPKGGOXIIUUMGG-SFHVURJKSA-N

$$$$
γ-D-Glutamic Backbone (DGSL-g-D-Glu-PNA-COOMe)
     RDKit          2D

 35 37  0  0  0  0  0  0  0  0999 V2000
   -8.9198    1.2475    0.0000 C   0  0  0  0  0  0  0  0  0  0  0  0
   -7.9241    2.3694    0.0000 C   0  0  0  0  0  0  0  0  0  0  0  0
   -6.9284    3.4912    0.0000 C   0  0  0  0  0  0  0  0  0  0  0  0
   -9.0460    3.3650    0.0000 C   0  0  0  0  0  0  0  0  0  0  0  0
   -6.8022    1.3737    0.0000 O   0  0  0  0  0  0  0  0  0  0  0  0
   -5.3790    1.8474    0.0000 C   0  0  0  0  0  0  0  0  0  0  0  0
   -5.0777    3.3169    0.0000 O   0  0  0  0  0  0  0  0  0  0  0  0
   -4.2571    0.8518    0.0000 C   0  0  0  0  0  0  0  0  0  0  0  0
   -2.8339    1.3255    0.0000 C   0  0  0  0  0  0  0  0  0  0  0  0
   -1.7120    0.3298    0.0000 C   0  0  0  0  0  0  0  0  0  0  0  0
   -2.0133   -1.1396    0.0000 C   0  0  0  0  0  0  0  0  0  0  0  0
   -3.4365   -1.6133    0.0000 N   0  0  0  0  0  0  0  0  0  0  0  0
   -3.7379   -3.0828    0.0000 C   0  0  0  0  0  0  0  0  0  0  0  0
   -5.1611   -3.5565    0.0000 C   0  0  0  0  0  0  0  0  0  0  0  0
   -6.2830   -2.5608    0.0000 O   0  0  0  0  0  0  0  0  0  0  0  0
   -5.4624   -5.0259    0.0000 O   0  0  0  0  0  0  0  0  0  0  0  0
   -6.8857   -5.4997    0.0000 C   0  0  0  0  0  0  0  0  0  0  0  0
   -0.2888    0.8036    0.0000 N   0  0  0  0  0  0  0  0  0  0  0  0
    0.8331   -0.1921    0.0000 C   0  0  0  0  0  0  0  0  0  0  0  0
    0.5318   -1.6615    0.0000 O   0  0  0  0  0  0  0  0  0  0  0  0
    2.2563    0.2817    0.0000 O   0  0  0  0  0  0  0  0  0  0  0  0
    3.3782   -0.7140    0.0000 C   0  0  0  0  0  0  0  0  0  0  0  0
    4.8015   -0.2403    0.0000 C   0  0  0  0  0  0  0  0  0  0  0  0
    6.0213   -1.1132    0.0000 C   0  0  0  0  0  0  0  0  0  0  0  0
    6.1888   -2.6038    0.0000 C   0  0  0  0  0  0  0  0  0  0  0  0
    7.5634   -3.2041    0.0000 C   0  0  0  0  0  0  0  0  0  0  0  0
    8.7706   -2.3137    0.0000 C   0  0  0  0  0  0  0  0  0  0  0  0
    8.6031   -0.8231    0.0000 C   0  0  0  0  0  0  0  0  0  0  0  0
    7.2284   -0.2229    0.0000 C   0  0  0  0  0  0  0  0  0  0  0  0
    6.7547    1.2004    0.0000 C   0  0  0  0  0  0  0  0  0  0  0  0
    7.4954    2.5047    0.0000 C   0  0  0  0  0  0  0  0  0  0  0  0
    6.7361    3.7984    0.0000 C   0  0  0  0  0  0  0  0  0  0  0  0
    5.2361    3.7876    0.0000 C   0  0  0  0  0  0  0  0  0  0  0  0
    4.4954    2.4832    0.0000 C   0  0  0  0  0  0  0  0  0  0  0  0
    5.2547    1.1896    0.0000 C   0  0  0  0  0  0  0  0  0  0  0  0
  1  2  1  0
  2  3  1  0
  2  4  1  0
  2  5  1  0
  5  6  1  0
  6  7  2  0
  6  8  1  0
  8  9  1  0
 10  9  1  1
 10 11  1  0
 11 12  1  0
 12 13  1  0
 13 14  1  0
 14 15  2  0
 14 16  1  0
 16 17  1  0
 10 18  1  0
 18 19  1  0
 19 20  2  0
 19 21  1  0
 21 22  1  0
 22 23  1  0
 23 24  1  0
 24 25  2  0
 25 26  1  0
 26 27  2  0
 27 28  1  0
 28 29  2  0
 29 30  1  0
 30 31  2  0
 31 32  1  0
 32 33  2  0
 33 34  1  0
 34 35  2  0
 35 23  1  0
 29 24  1  0
 35 30  1  0
M  END
>  <ID>  (55) 
DST-GLU-004

>  <Name>  (55) 
γ-D-Glutamic Backbone (DGSL-g-D-Glu-PNA-COOMe)

>  <Primary_Group>  (55) 
7. γ-Chiral Glutamic PNA Platform (PS_Gamma Glu & SOP_EE)

>  <Formula>  (55) 
C27H34N2O6

>  <Molecular_Weight>  (55) 
482.58

>  <Exact_Mass>  (55) 
482.2417

>  <IUPAC_Name>  (55) 
methyl N-((R)-2-((((9H-fluoren-9-yl)methoxy)carbonyl)amino)-4-(tert-butoxycarbonyl)butyl)glycinate

>  <SMILES>  (55) 
CC(C)(C)OC(=O)CC[C@H](CNCC(=O)OC)NC(=O)OCC1c2ccccc2-c3ccccc31

>  <Functional_Role>  (55) 
Chiral (R)-D-glutamic backbone synthesized as reference for chiral HPLC validation (ee = 100%, Tr = 48.501 min on Cellulose-1).

>  <Source_Document>  (55) 
SOP_EE-GAMMA-GLU-MONOMERS

>  <InChI>  (55) 
InChI=1S/C27H34N2O6/c1-27(2,3)35-24(30)14-13-18(15-28-16-25(31)33-4)29-26(32)34-17-23-21-11-7-5-9-19(21)20-10-6-8-12-22(20)23/h5-12,18,23,28H,13-17H2,1-4H3,(H,29,32)/t18-/m1/s1

>  <InChIKey>  (55) 
KPKGGOXIIUUMGG-GOSISDBHSA-N

$$$$
DGSL-Boc-γ-Glu-PNA-COOMe
     RDKit          2D

 42 44  0  0  0  0  0  0  0  0999 V2000
   -7.8919    2.1219    0.0000 C   0  0  0  0  0  0  0  0  0  0  0  0
   -6.8334    3.1846    0.0000 C   0  0  0  0  0  0  0  0  0  0  0  0
   -5.7748    4.2473    0.0000 C   0  0  0  0  0  0  0  0  0  0  0  0
   -7.8961    4.2432    0.0000 C   0  0  0  0  0  0  0  0  0  0  0  0
   -5.7706    2.1260    0.0000 O   0  0  0  0  0  0  0  0  0  0  0  0
   -4.3225    2.5171    0.0000 C   0  0  0  0  0  0  0  0  0  0  0  0
   -3.9371    3.9667    0.0000 O   0  0  0  0  0  0  0  0  0  0  0  0
   -3.2598    1.4585    0.0000 C   0  0  0  0  0  0  0  0  0  0  0  0
   -1.8116    1.8495    0.0000 C   0  0  0  0  0  0  0  0  0  0  0  0
   -0.7489    0.7909    0.0000 C   0  0  0  0  0  0  0  0  0  0  0  0
   -1.1343   -0.6587    0.0000 C   0  0  0  0  0  0  0  0  0  0  0  0
   -2.5825   -1.0498    0.0000 N   0  0  0  0  0  0  0  0  0  0  0  0
   -3.6452    0.0088    0.0000 C   0  0  0  0  0  0  0  0  0  0  0  0
   -5.0933   -0.3822    0.0000 C   0  0  0  0  0  0  0  0  0  0  0  0
   -5.4787   -1.8319    0.0000 O   0  0  0  0  0  0  0  0  0  0  0  0
   -6.1560    0.6764    0.0000 O   0  0  0  0  0  0  0  0  0  0  0  0
   -7.6042    0.2853    0.0000 C   0  0  0  0  0  0  0  0  0  0  0  0
   -2.9679   -2.4994    0.0000 C   0  0  0  0  0  0  0  0  0  0  0  0
   -1.9051   -3.5580    0.0000 O   0  0  0  0  0  0  0  0  0  0  0  0
   -4.4160   -2.8905    0.0000 O   0  0  0  0  0  0  0  0  0  0  0  0
   -4.8014   -4.3401    0.0000 C   0  0  0  0  0  0  0  0  0  0  0  0
   -6.2510   -3.9547    0.0000 C   0  0  0  0  0  0  0  0  0  0  0  0
   -3.3517   -4.7255    0.0000 C   0  0  0  0  0  0  0  0  0  0  0  0
   -5.1868   -5.7898    0.0000 C   0  0  0  0  0  0  0  0  0  0  0  0
    0.6992    1.1820    0.0000 N   0  0  0  0  0  0  0  0  0  0  0  0
    1.7619    0.1234    0.0000 C   0  0  0  0  0  0  0  0  0  0  0  0
    1.3765   -1.3263    0.0000 O   0  0  0  0  0  0  0  0  0  0  0  0
    3.2101    0.5144    0.0000 O   0  0  0  0  0  0  0  0  0  0  0  0
    4.2728   -0.5442    0.0000 C   0  0  0  0  0  0  0  0  0  0  0  0
    5.7209   -0.1531    0.0000 C   0  0  0  0  0  0  0  0  0  0  0  0
    6.8885   -1.0948    0.0000 C   0  0  0  0  0  0  0  0  0  0  0  0
    6.9699   -2.5926    0.0000 C   0  0  0  0  0  0  0  0  0  0  0  0
    8.3077   -3.2710    0.0000 C   0  0  0  0  0  0  0  0  0  0  0  0
    9.5641   -2.4516    0.0000 C   0  0  0  0  0  0  0  0  0  0  0  0
    9.4827   -0.9538    0.0000 C   0  0  0  0  0  0  0  0  0  0  0  0
    8.1449   -0.2754    0.0000 C   0  0  0  0  0  0  0  0  0  0  0  0
    7.7538    1.1727    0.0000 C   0  0  0  0  0  0  0  0  0  0  0  0
    8.5683    2.4323    0.0000 C   0  0  0  0  0  0  0  0  0  0  0  0
    7.8848    3.7675    0.0000 C   0  0  0  0  0  0  0  0  0  0  0  0
    6.3867    3.8431    0.0000 C   0  0  0  0  0  0  0  0  0  0  0  0
    5.5722    2.5835    0.0000 C   0  0  0  0  0  0  0  0  0  0  0  0
    6.2557    1.2483    0.0000 C   0  0  0  0  0  0  0  0  0  0  0  0
  1  2  1  0
  2  3  1  0
  2  4  1  0
  2  5  1  0
  5  6  1  0
  6  7  2  0
  6  8  1  0
  8  9  1  0
 10  9  1  6
 10 11  1  0
 11 12  1  0
 12 13  1  0
 13 14  1  0
 14 15  2  0
 14 16  1  0
 16 17  1  0
 12 18  1  0
 18 19  2  0
 18 20  1  0
 20 21  1  0
 21 22  1  0
 21 23  1  0
 21 24  1  0
 10 25  1  0
 25 26  1  0
 26 27  2  0
 26 28  1  0
 28 29  1  0
 29 30  1  0
 30 31  1  0
 31 32  2  0
 32 33  1  0
 33 34  2  0
 34 35  1  0
 35 36  2  0
 36 37  1  0
 37 38  2  0
 38 39  1  0
 39 40  2  0
 40 41  1  0
 41 42  2  0
 42 30  1  0
 36 31  1  0
 42 37  1  0
M  END
>  <ID>  (56) 
DST-GLU-005

>  <Name>  (56) 
DGSL-Boc-γ-Glu-PNA-COOMe

>  <Primary_Group>  (56) 
7. γ-Chiral Glutamic PNA Platform (PS_Gamma Glu & SOP_EE)

>  <Formula>  (56) 
C32H42N2O8

>  <Molecular_Weight>  (56) 
582.69

>  <Exact_Mass>  (56) 
582.2941

>  <IUPAC_Name>  (56) 
methyl N-((S)-2-((((9H-fluoren-9-yl)methoxy)carbonyl)amino)-4-(tert-butoxycarbonyl)butyl)-N-(tert-butoxycarbonyl)glycinate

>  <SMILES>  (56) 
CC(C)(C)OC(=O)CC[C@@H](CN(CC(=O)OC)C(=O)OC(C)(C)C)NC(=O)OCC1c2ccccc2-c3ccccc31

>  <Functional_Role>  (56) 
Boc-protected methyl ester intermediate towards *GL* abasic blank monomer (Step 5).

>  <Source_Document>  (56) 
PS_Gamma Glu Monomers Step 5

>  <InChI>  (56) 
InChI=1S/C32H42N2O8/c1-31(2,3)41-27(35)17-16-21(18-34(19-28(36)39-7)30(38)42-32(4,5)6)33-29(37)40-20-26-24-14-10-8-12-22(24)23-13-9-11-15-25(23)26/h8-15,21,26H,16-20H2,1-7H3,(H,33,37)/t21-/m0/s1

>  <InChIKey>  (56) 
UFVYVOICJKAYSD-NRFANRHFSA-N

$$$$
Blank Monomer - *GL* (Boc-γ-L-Glu-PNA-COOH)
     RDKit          2D

 41 43  0  0  0  0  0  0  0  0999 V2000
   -8.0728    2.1461    0.0000 C   0  0  0  0  0  0  0  0  0  0  0  0
   -7.0120    3.2066    0.0000 C   0  0  0  0  0  0  0  0  0  0  0  0
   -5.9511    4.2670    0.0000 C   0  0  0  0  0  0  0  0  0  0  0  0
   -8.0724    4.2674    0.0000 C   0  0  0  0  0  0  0  0  0  0  0  0
   -5.9515    2.1457    0.0000 O   0  0  0  0  0  0  0  0  0  0  0  0
   -4.5026    2.5337    0.0000 C   0  0  0  0  0  0  0  0  0  0  0  0
   -4.1140    3.9825    0.0000 O   0  0  0  0  0  0  0  0  0  0  0  0
   -3.4421    1.4728    0.0000 C   0  0  0  0  0  0  0  0  0  0  0  0
   -1.9931    1.8607    0.0000 C   0  0  0  0  0  0  0  0  0  0  0  0
   -0.9327    0.7999    0.0000 C   0  0  0  0  0  0  0  0  0  0  0  0
   -1.3212   -0.6489    0.0000 C   0  0  0  0  0  0  0  0  0  0  0  0
   -2.7701   -1.0369    0.0000 N   0  0  0  0  0  0  0  0  0  0  0  0
   -3.8306    0.0240    0.0000 C   0  0  0  0  0  0  0  0  0  0  0  0
   -5.2796   -0.3640    0.0000 C   0  0  0  0  0  0  0  0  0  0  0  0
   -5.6681   -1.8128    0.0000 O   0  0  0  0  0  0  0  0  0  0  0  0
   -6.3400    0.6969    0.0000 O   0  0  0  0  0  0  0  0  0  0  0  0
   -3.1587   -2.4857    0.0000 C   0  0  0  0  0  0  0  0  0  0  0  0
   -2.0982   -3.5466    0.0000 O   0  0  0  0  0  0  0  0  0  0  0  0
   -4.6076   -2.8737    0.0000 O   0  0  0  0  0  0  0  0  0  0  0  0
   -4.9961   -4.3225    0.0000 C   0  0  0  0  0  0  0  0  0  0  0  0
   -6.4449   -3.9340    0.0000 C   0  0  0  0  0  0  0  0  0  0  0  0
   -3.5473   -4.7110    0.0000 C   0  0  0  0  0  0  0  0  0  0  0  0
   -5.3846   -5.7713    0.0000 C   0  0  0  0  0  0  0  0  0  0  0  0
    0.5163    1.1878    0.0000 N   0  0  0  0  0  0  0  0  0  0  0  0
    1.5767    0.1270    0.0000 C   0  0  0  0  0  0  0  0  0  0  0  0
    1.1882   -1.3218    0.0000 O   0  0  0  0  0  0  0  0  0  0  0  0
    3.0257    0.5149    0.0000 O   0  0  0  0  0  0  0  0  0  0  0  0
    4.0862   -0.5459    0.0000 C   0  0  0  0  0  0  0  0  0  0  0  0
    5.5351   -0.1580    0.0000 C   0  0  0  0  0  0  0  0  0  0  0  0
    6.7007   -1.1022    0.0000 C   0  0  0  0  0  0  0  0  0  0  0  0
    6.7789   -2.6002    0.0000 C   0  0  0  0  0  0  0  0  0  0  0  0
    8.1153   -3.2814    0.0000 C   0  0  0  0  0  0  0  0  0  0  0  0
    9.3734   -2.4647    0.0000 C   0  0  0  0  0  0  0  0  0  0  0  0
    9.2952   -0.9667    0.0000 C   0  0  0  0  0  0  0  0  0  0  0  0
    7.9588   -0.2855    0.0000 C   0  0  0  0  0  0  0  0  0  0  0  0
    7.5709    1.1635    0.0000 C   0  0  0  0  0  0  0  0  0  0  0  0
    8.3881    2.4213    0.0000 C   0  0  0  0  0  0  0  0  0  0  0  0
    7.7073    3.7580    0.0000 C   0  0  0  0  0  0  0  0  0  0  0  0
    6.2094    3.8368    0.0000 C   0  0  0  0  0  0  0  0  0  0  0  0
    5.3922    2.5789    0.0000 C   0  0  0  0  0  0  0  0  0  0  0  0
    6.0729    1.2423    0.0000 C   0  0  0  0  0  0  0  0  0  0  0  0
  1  2  1  0
  2  3  1  0
  2  4  1  0
  2  5  1  0
  5  6  1  0
  6  7  2  0
  6  8  1  0
  8  9  1  0
 10  9  1  6
 10 11  1  0
 11 12  1  0
 12 13  1  0
 13 14  1  0
 14 15  2  0
 14 16  1  0
 12 17  1  0
 17 18  2  0
 17 19  1  0
 19 20  1  0
 20 21  1  0
 20 22  1  0
 20 23  1  0
 10 24  1  0
 24 25  1  0
 25 26  2  0
 25 27  1  0
 27 28  1  0
 28 29  1  0
 29 30  1  0
 30 31  2  0
 31 32  1  0
 32 33  2  0
 33 34  1  0
 34 35  2  0
 35 36  1  0
 36 37  2  0
 37 38  1  0
 38 39  2  0
 39 40  1  0
 40 41  2  0
 41 29  1  0
 35 30  1  0
 41 36  1  0
M  END
>  <ID>  (57) 
DST-GLU-006

>  <Name>  (57) 
Blank Monomer - *GL* (Boc-γ-L-Glu-PNA-COOH)

>  <Primary_Group>  (57) 
7. γ-Chiral Glutamic PNA Platform (PS_Gamma Glu & SOP_EE)

>  <Formula>  (57) 
C31H40N2O8

>  <Molecular_Weight>  (57) 
568.67

>  <Exact_Mass>  (57) 
568.2785

>  <IUPAC_Name>  (57) 
N-((S)-2-((((9H-fluoren-9-yl)methoxy)carbonyl)amino)-4-(tert-butoxycarbonyl)butyl)-N-(tert-butoxycarbonyl)glycine

>  <SMILES>  (57) 
CC(C)(C)OC(=O)CC[C@@H](CN(CC(=O)O)C(=O)OC(C)(C)C)NC(=O)OCC1c2ccccc2-c3ccccc31

>  <Functional_Role>  (57) 
Chiral abasic PNA monomer with glutamic acid sidechain (ee = 100%, Tr = 14.929 min on Cellulose-1, RP-HPLC CBU-2 Tr = 6.504 min) (Step 6).

>  <Source_Document>  (57) 
PS_Gamma Glu Monomers Step 6 & SOP_EE

>  <InChI>  (57) 
InChI=1S/C31H40N2O8/c1-30(2,3)40-27(36)16-15-20(17-33(18-26(34)35)29(38)41-31(4,5)6)32-28(37)39-19-25-23-13-9-7-11-21(23)22-12-8-10-14-24(22)25/h7-14,20,25H,15-19H2,1-6H3,(H,32,37)(H,34,35)/t20-/m0/s1

>  <InChIKey>  (57) 
NGQZZZMIOIGBKN-FQEVSTJZSA-N

$$$$
DhBtOH (3,4-Dihydro-3-hydroxy-4-oxo-1,2,3-benzotriazine)
     RDKit          2D

 12 13  0  0  0  0  0  0  0  0999 V2000
   -1.5265   -2.3044    0.0000 O   0  0  0  0  0  0  0  0  0  0  0  0
   -1.1316   -0.8573    0.0000 C   0  0  0  0  0  0  0  0  0  0  0  0
    0.3190   -0.4758    0.0000 C   0  0  0  0  0  0  0  0  0  0  0  0
    1.3748   -1.5413    0.0000 C   0  0  0  0  0  0  0  0  0  0  0  0
    2.8255   -1.1597    0.0000 C   0  0  0  0  0  0  0  0  0  0  0  0
    3.2203    0.2874    0.0000 C   0  0  0  0  0  0  0  0  0  0  0  0
    2.1645    1.3529    0.0000 C   0  0  0  0  0  0  0  0  0  0  0  0
    0.7139    0.9713    0.0000 C   0  0  0  0  0  0  0  0  0  0  0  0
   -0.3419    2.0368    0.0000 N   0  0  0  0  0  0  0  0  0  0  0  0
   -1.7926    1.6553    0.0000 N   0  0  0  0  0  0  0  0  0  0  0  0
   -2.1874    0.2082    0.0000 N   0  0  0  0  0  0  0  0  0  0  0  0
   -3.6381   -0.1734    0.0000 O   0  0  0  0  0  0  0  0  0  0  0  0
  1  2  2  0
  2  3  1  0
  3  4  2  0
  4  5  1  0
  5  6  2  0
  6  7  1  0
  7  8  2  0
  8  9  1  0
  9 10  2  0
 10 11  1  0
 11 12  1  0
 11  2  1  0
  8  3  1  0
M  END
>  <ID>  (58) 
DST-GLU-007

>  <Name>  (58) 
DhBtOH (3,4-Dihydro-3-hydroxy-4-oxo-1,2,3-benzotriazine)

>  <Primary_Group>  (58) 
7. γ-Chiral Glutamic PNA Platform (PS_Gamma Glu & SOP_EE)

>  <Formula>  (58) 
C7H5N3O2

>  <Molecular_Weight>  (58) 
163.14

>  <Exact_Mass>  (58) 
163.0382

>  <IUPAC_Name>  (58) 
3-hydroxybenzo[d][1,2,3]triazin-4(3H)-one

>  <SMILES>  (58) 
O=C1c2ccccc2N=NN1O

>  <Functional_Role>  (58) 
Specialized racemization-suppressing coupling additive used in Step 3 for coupling nucleobase acetic acids to the γ-Glu backbone.

>  <CAS_Number>  (58) 
28230-32-2

>  <Source_Document>  (58) 
PS_Gamma Glu Monomers Step 3

>  <InChI>  (58) 
InChI=1S/C7H5N3O2/c11-7-5-3-1-2-4-6(5)8-9-10(7)12/h1-4,12H

>  <InChIKey>  (58) 
HJBLUNHMOKFZQX-UHFFFAOYSA-N

$$$$
DCC (N,N'-Dicyclohexylcarbodiimide)
     RDKit          2D

 15 16  0  0  0  0  0  0  0  0999 V2000
   -3.7500   -1.8187    0.0000 C   0  0  0  0  0  0  0  0  0  0  0  0
   -4.5000   -0.5196    0.0000 C   0  0  0  0  0  0  0  0  0  0  0  0
   -3.7500    0.7794    0.0000 C   0  0  0  0  0  0  0  0  0  0  0  0
   -2.2500    0.7794    0.0000 C   0  0  0  0  0  0  0  0  0  0  0  0
   -1.5000    2.0785    0.0000 N   0  0  0  0  0  0  0  0  0  0  0  0
   -0.0000    2.0785    0.0000 C   0  0  0  0  0  0  0  0  0  0  0  0
    1.5000    2.0785    0.0000 N   0  0  0  0  0  0  0  0  0  0  0  0
    2.2500    0.7794    0.0000 C   0  0  0  0  0  0  0  0  0  0  0  0
    1.5000   -0.5196    0.0000 C   0  0  0  0  0  0  0  0  0  0  0  0
    2.2500   -1.8187    0.0000 C   0  0  0  0  0  0  0  0  0  0  0  0
    3.7500   -1.8187    0.0000 C   0  0  0  0  0  0  0  0  0  0  0  0
    4.5000   -0.5196    0.0000 C   0  0  0  0  0  0  0  0  0  0  0  0
    3.7500    0.7794    0.0000 C   0  0  0  0  0  0  0  0  0  0  0  0
   -1.5000   -0.5196    0.0000 C   0  0  0  0  0  0  0  0  0  0  0  0
   -2.2500   -1.8187    0.0000 C   0  0  0  0  0  0  0  0  0  0  0  0
  1  2  1  0
  2  3  1  0
  3  4  1  0
  4  5  1  0
  5  6  2  0
  6  7  2  0
  7  8  1  0
  8  9  1  0
  9 10  1  0
 10 11  1  0
 11 12  1  0
 12 13  1  0
  4 14  1  0
 14 15  1  0
 15  1  1  0
 13  8  1  0
M  END
>  <ID>  (59) 
DST-GLU-008

>  <Name>  (59) 
DCC (N,N'-Dicyclohexylcarbodiimide)

>  <Primary_Group>  (59) 
7. γ-Chiral Glutamic PNA Platform (PS_Gamma Glu & SOP_EE)

>  <Formula>  (59) 
C13H22N2

>  <Molecular_Weight>  (59) 
206.33

>  <Exact_Mass>  (59) 
206.1783

>  <IUPAC_Name>  (59) 
1,3-dicyclohexylcarbodiimide

>  <SMILES>  (59) 
C1CCC(N=C=NC2CCCCC2)CC1

>  <Functional_Role>  (59) 
Carbodiimide coupling agent paired with DhBtOH for solution-phase synthesis of DGSL-NB-γ-Glu-PNA-COOMe monomers (Step 3).

>  <CAS_Number>  (59) 
538-75-0

>  <Source_Document>  (59) 
PS_Gamma Glu Monomers Step 3

>  <InChI>  (59) 
InChI=1S/C13H22N2/c1-3-7-12(8-4-1)14-11-15-13-9-5-2-6-10-13/h12-13H,1-10H2

>  <InChIKey>  (59) 
QOSSAOTZNIDXMA-UHFFFAOYSA-N

$$$$
Fmoc-L-Ser(tBu)-OH (Starting Material 1a)
     RDKit          2D

 28 30  0  0  0  0  0  0  0  0999 V2000
   -8.3086   -0.3478    0.0000 C   0  0  0  0  0  0  0  0  0  0  0  0
   -7.4186    0.8595    0.0000 C   0  0  0  0  0  0  0  0  0  0  0  0
   -6.5285    2.0669    0.0000 C   0  0  0  0  0  0  0  0  0  0  0  0
   -8.6259    1.7496    0.0000 C   0  0  0  0  0  0  0  0  0  0  0  0
   -6.2112   -0.0305    0.0000 O   0  0  0  0  0  0  0  0  0  0  0  0
   -4.8367    0.5700    0.0000 C   0  0  0  0  0  0  0  0  0  0  0  0
   -3.6293   -0.3200    0.0000 C   0  0  0  0  0  0  0  0  0  0  0  0
   -3.7964   -1.8107    0.0000 C   0  0  0  0  0  0  0  0  0  0  0  0
   -2.5890   -2.7008    0.0000 O   0  0  0  0  0  0  0  0  0  0  0  0
   -5.1709   -2.4113    0.0000 O   0  0  0  0  0  0  0  0  0  0  0  0
   -2.2548    0.2805    0.0000 N   0  0  0  0  0  0  0  0  0  0  0  0
   -1.0474   -0.6095    0.0000 C   0  0  0  0  0  0  0  0  0  0  0  0
   -1.2145   -2.1002    0.0000 O   0  0  0  0  0  0  0  0  0  0  0  0
    0.3271   -0.0089    0.0000 O   0  0  0  0  0  0  0  0  0  0  0  0
    1.5345   -0.8990    0.0000 C   0  0  0  0  0  0  0  0  0  0  0  0
    2.9090   -0.2984    0.0000 C   0  0  0  0  0  0  0  0  0  0  0  0
    4.2028   -1.0574    0.0000 C   0  0  0  0  0  0  0  0  0  0  0  0
    4.5045   -2.5268    0.0000 C   0  0  0  0  0  0  0  0  0  0  0  0
    5.9279   -3.0002    0.0000 C   0  0  0  0  0  0  0  0  0  0  0  0
    7.0495   -2.0043    0.0000 C   0  0  0  0  0  0  0  0  0  0  0  0
    6.7478   -0.5349    0.0000 C   0  0  0  0  0  0  0  0  0  0  0  0
    5.3245   -0.0615    0.0000 C   0  0  0  0  0  0  0  0  0  0  0  0
    4.7239    1.3130    0.0000 C   0  0  0  0  0  0  0  0  0  0  0  0
    5.3435    2.6791    0.0000 C   0  0  0  0  0  0  0  0  0  0  0  0
    4.4703    3.8987    0.0000 C   0  0  0  0  0  0  0  0  0  0  0  0
    2.9774    3.7522    0.0000 C   0  0  0  0  0  0  0  0  0  0  0  0
    2.3578    2.3862    0.0000 C   0  0  0  0  0  0  0  0  0  0  0  0
    3.2311    1.1666    0.0000 C   0  0  0  0  0  0  0  0  0  0  0  0
  1  2  1  0
  2  3  1  0
  2  4  1  0
  2  5  1  0
  5  6  1  0
  7  6  1  6
  7  8  1  0
  8  9  2  0
  8 10  1  0
  7 11  1  0
 11 12  1  0
 12 13  2  0
 12 14  1  0
 14 15  1  0
 15 16  1  0
 16 17  1  0
 17 18  2  0
 18 19  1  0
 19 20  2  0
 20 21  1  0
 21 22  2  0
 22 23  1  0
 23 24  2  0
 24 25  1  0
 25 26  2  0
 26 27  1  0
 27 28  2  0
 28 16  1  0
 22 17  1  0
 28 23  1  0
M  END
>  <ID>  (60) 
DST-SER-001

>  <Name>  (60) 
Fmoc-L-Ser(tBu)-OH (Starting Material 1a)

>  <Primary_Group>  (60) 
8. γ-Chiral Serine PNA Platform (PS_Gamma Ser)

>  <Formula>  (60) 
C22H25NO5

>  <Molecular_Weight>  (60) 
383.44

>  <Exact_Mass>  (60) 
383.1733

>  <IUPAC_Name>  (60) 
(S)-2-((((9H-fluoren-9-yl)methoxy)carbonyl)amino)-3-(tert-butoxy)propanoic acid

>  <SMILES>  (60) 
CC(C)(C)OC[C@@H](C(=O)O)NC(=O)OCC1c2ccccc2-c3ccccc31

>  <Functional_Role>  (60) 
Enantiopure L-serine starting material for synthesis of chiral γ-L-Serine backbone (Step 1).

>  <CAS_Number>  (60) 
71989-33-8

>  <Source_Document>  (60) 
PS_Gamma Ser Monomers Step 1

>  <InChI>  (60) 
InChI=1S/C22H25NO5/c1-22(2,3)28-13-19(20(24)25)23-21(26)27-12-18-16-10-6-4-8-14(16)15-9-5-7-11-17(15)18/h4-11,18-19H,12-13H2,1-3H3,(H,23,26)(H,24,25)/t19-/m0/s1

>  <InChIKey>  (60) 
REITVGIIZHFVGU-IBGZPJMESA-N

$$$$
Fmoc-D-Ser(tBu)-OH (Starting Material 1b)
     RDKit          2D

 28 30  0  0  0  0  0  0  0  0999 V2000
   -8.3086   -0.3478    0.0000 C   0  0  0  0  0  0  0  0  0  0  0  0
   -7.4186    0.8595    0.0000 C   0  0  0  0  0  0  0  0  0  0  0  0
   -6.5285    2.0669    0.0000 C   0  0  0  0  0  0  0  0  0  0  0  0
   -8.6259    1.7496    0.0000 C   0  0  0  0  0  0  0  0  0  0  0  0
   -6.2112   -0.0305    0.0000 O   0  0  0  0  0  0  0  0  0  0  0  0
   -4.8367    0.5700    0.0000 C   0  0  0  0  0  0  0  0  0  0  0  0
   -3.6293   -0.3200    0.0000 C   0  0  0  0  0  0  0  0  0  0  0  0
   -3.7964   -1.8107    0.0000 C   0  0  0  0  0  0  0  0  0  0  0  0
   -2.5890   -2.7008    0.0000 O   0  0  0  0  0  0  0  0  0  0  0  0
   -5.1709   -2.4113    0.0000 O   0  0  0  0  0  0  0  0  0  0  0  0
   -2.2548    0.2805    0.0000 N   0  0  0  0  0  0  0  0  0  0  0  0
   -1.0474   -0.6095    0.0000 C   0  0  0  0  0  0  0  0  0  0  0  0
   -1.2145   -2.1002    0.0000 O   0  0  0  0  0  0  0  0  0  0  0  0
    0.3271   -0.0089    0.0000 O   0  0  0  0  0  0  0  0  0  0  0  0
    1.5345   -0.8990    0.0000 C   0  0  0  0  0  0  0  0  0  0  0  0
    2.9090   -0.2984    0.0000 C   0  0  0  0  0  0  0  0  0  0  0  0
    4.2028   -1.0574    0.0000 C   0  0  0  0  0  0  0  0  0  0  0  0
    4.5045   -2.5268    0.0000 C   0  0  0  0  0  0  0  0  0  0  0  0
    5.9279   -3.0002    0.0000 C   0  0  0  0  0  0  0  0  0  0  0  0
    7.0495   -2.0043    0.0000 C   0  0  0  0  0  0  0  0  0  0  0  0
    6.7478   -0.5349    0.0000 C   0  0  0  0  0  0  0  0  0  0  0  0
    5.3245   -0.0615    0.0000 C   0  0  0  0  0  0  0  0  0  0  0  0
    4.7239    1.3130    0.0000 C   0  0  0  0  0  0  0  0  0  0  0  0
    5.3435    2.6791    0.0000 C   0  0  0  0  0  0  0  0  0  0  0  0
    4.4703    3.8987    0.0000 C   0  0  0  0  0  0  0  0  0  0  0  0
    2.9774    3.7522    0.0000 C   0  0  0  0  0  0  0  0  0  0  0  0
    2.3578    2.3862    0.0000 C   0  0  0  0  0  0  0  0  0  0  0  0
    3.2311    1.1666    0.0000 C   0  0  0  0  0  0  0  0  0  0  0  0
  1  2  1  0
  2  3  1  0
  2  4  1  0
  2  5  1  0
  5  6  1  0
  7  6  1  1
  7  8  1  0
  8  9  2  0
  8 10  1  0
  7 11  1  0
 11 12  1  0
 12 13  2  0
 12 14  1  0
 14 15  1  0
 15 16  1  0
 16 17  1  0
 17 18  2  0
 18 19  1  0
 19 20  2  0
 20 21  1  0
 21 22  2  0
 22 23  1  0
 23 24  2  0
 24 25  1  0
 25 26  2  0
 26 27  1  0
 27 28  2  0
 28 16  1  0
 22 17  1  0
 28 23  1  0
M  END
>  <ID>  (61) 
DST-SER-002

>  <Name>  (61) 
Fmoc-D-Ser(tBu)-OH (Starting Material 1b)

>  <Primary_Group>  (61) 
8. γ-Chiral Serine PNA Platform (PS_Gamma Ser)

>  <Formula>  (61) 
C22H25NO5

>  <Molecular_Weight>  (61) 
383.44

>  <Exact_Mass>  (61) 
383.1733

>  <IUPAC_Name>  (61) 
(R)-2-((((9H-fluoren-9-yl)methoxy)carbonyl)amino)-3-(tert-butoxy)propanoic acid

>  <SMILES>  (61) 
CC(C)(C)OC[C@H](C(=O)O)NC(=O)OCC1c2ccccc2-c3ccccc31

>  <Functional_Role>  (61) 
Enantiopure D-serine starting material for synthesis of chiral γ-D-Serine backbone (Step 1).

>  <CAS_Number>  (61) 
128107-51-9

>  <Source_Document>  (61) 
PS_Gamma Ser Monomers Step 1

>  <InChI>  (61) 
InChI=1S/C22H25NO5/c1-22(2,3)28-13-19(20(24)25)23-21(26)27-12-18-16-10-6-4-8-14(16)15-9-5-7-11-17(15)18/h4-11,18-19H,12-13H2,1-3H3,(H,23,26)(H,24,25)/t19-/m1/s1

>  <InChIKey>  (61) 
REITVGIIZHFVGU-LJQANCHMSA-N

$$$$
Fmoc-L-Ser(tBu)-ol (Alcohol 2a)
     RDKit          2D

 27 29  0  0  0  0  0  0  0  0999 V2000
   -7.8286   -0.9140    0.0000 C   0  0  0  0  0  0  0  0  0  0  0  0
   -6.4421   -1.4865    0.0000 C   0  0  0  0  0  0  0  0  0  0  0  0
   -5.0556   -2.0590    0.0000 C   0  0  0  0  0  0  0  0  0  0  0  0
   -7.0146   -2.8730    0.0000 C   0  0  0  0  0  0  0  0  0  0  0  0
   -5.8696   -0.1000    0.0000 O   0  0  0  0  0  0  0  0  0  0  0  0
   -4.3827    0.0974    0.0000 C   0  0  0  0  0  0  0  0  0  0  0  0
   -3.8103    1.4839    0.0000 C   0  0  0  0  0  0  0  0  0  0  0  0
   -4.7247    2.6729    0.0000 C   0  0  0  0  0  0  0  0  0  0  0  0
   -6.2117    2.4754    0.0000 O   0  0  0  0  0  0  0  0  0  0  0  0
   -2.3233    1.6814    0.0000 N   0  0  0  0  0  0  0  0  0  0  0  0
   -1.4088    0.4924    0.0000 C   0  0  0  0  0  0  0  0  0  0  0  0
   -1.9813   -0.8941    0.0000 O   0  0  0  0  0  0  0  0  0  0  0  0
    0.0781    0.6899    0.0000 O   0  0  0  0  0  0  0  0  0  0  0  0
    0.9926   -0.4991    0.0000 C   0  0  0  0  0  0  0  0  0  0  0  0
    2.4796   -0.3017    0.0000 C   0  0  0  0  0  0  0  0  0  0  0  0
    3.5133   -1.3885    0.0000 C   0  0  0  0  0  0  0  0  0  0  0  0
    3.3973   -2.8841    0.0000 C   0  0  0  0  0  0  0  0  0  0  0  0
    4.6345   -3.7323    0.0000 C   0  0  0  0  0  0  0  0  0  0  0  0
    5.9876   -3.0850    0.0000 C   0  0  0  0  0  0  0  0  0  0  0  0
    6.1036   -1.5895    0.0000 C   0  0  0  0  0  0  0  0  0  0  0  0
    4.8665   -0.7412    0.0000 C   0  0  0  0  0  0  0  0  0  0  0  0
    4.6690    0.7457    0.0000 C   0  0  0  0  0  0  0  0  0  0  0  0
    5.6419    1.8874    0.0000 C   0  0  0  0  0  0  0  0  0  0  0  0
    5.1396    3.3008    0.0000 C   0  0  0  0  0  0  0  0  0  0  0  0
    3.6644    3.5725    0.0000 C   0  0  0  0  0  0  0  0  0  0  0  0
    2.6915    2.4308    0.0000 C   0  0  0  0  0  0  0  0  0  0  0  0
    3.1938    1.0174    0.0000 C   0  0  0  0  0  0  0  0  0  0  0  0
  1  2  1  0
  2  3  1  0
  2  4  1  0
  2  5  1  0
  5  6  1  0
  7  6  1  1
  7  8  1  0
  8  9  1  0
  7 10  1  0
 10 11  1  0
 11 12  2  0
 11 13  1  0
 13 14  1  0
 14 15  1  0
 15 16  1  0
 16 17  2  0
 17 18  1  0
 18 19  2  0
 19 20  1  0
 20 21  2  0
 21 22  1  0
 22 23  2  0
 23 24  1  0
 24 25  2  0
 25 26  1  0
 26 27  2  0
 27 15  1  0
 21 16  1  0
 27 22  1  0
M  END
>  <ID>  (62) 
DST-SER-003

>  <Name>  (62) 
Fmoc-L-Ser(tBu)-ol (Alcohol 2a)

>  <Primary_Group>  (62) 
8. γ-Chiral Serine PNA Platform (PS_Gamma Ser)

>  <Formula>  (62) 
C22H27NO4

>  <Molecular_Weight>  (62) 
369.46

>  <Exact_Mass>  (62) 
369.194

>  <IUPAC_Name>  (62) 
(S)-(9H-fluoren-9-yl)methyl (1-(tert-butoxy)-3-hydroxypropan-2-yl)carbamate

>  <SMILES>  (62) 
CC(C)(C)OC[C@@H](CO)NC(=O)OCC1c2ccccc2-c3ccccc31

>  <Functional_Role>  (62) 
Reduced alcohol intermediate prepared via mixed carbonic anhydride reduction with NaBH4 (Step 1).

>  <Source_Document>  (62) 
PS_Gamma Ser Monomers Step 1

>  <InChI>  (62) 
InChI=1S/C22H27NO4/c1-22(2,3)27-13-15(12-24)23-21(25)26-14-20-18-10-6-4-8-16(18)17-9-5-7-11-19(17)20/h4-11,15,20,24H,12-14H2,1-3H3,(H,23,25)/t15-/m1/s1

>  <InChIKey>  (62) 
CPEHAICNNOERSX-OAHLLOKOSA-N

$$$$
Fmoc-D-Ser(tBu)-ol (Alcohol 2b)
     RDKit          2D

 27 29  0  0  0  0  0  0  0  0999 V2000
   -7.8286   -0.9140    0.0000 C   0  0  0  0  0  0  0  0  0  0  0  0
   -6.4421   -1.4865    0.0000 C   0  0  0  0  0  0  0  0  0  0  0  0
   -5.0556   -2.0590    0.0000 C   0  0  0  0  0  0  0  0  0  0  0  0
   -7.0146   -2.8730    0.0000 C   0  0  0  0  0  0  0  0  0  0  0  0
   -5.8696   -0.1000    0.0000 O   0  0  0  0  0  0  0  0  0  0  0  0
   -4.3827    0.0974    0.0000 C   0  0  0  0  0  0  0  0  0  0  0  0
   -3.8103    1.4839    0.0000 C   0  0  0  0  0  0  0  0  0  0  0  0
   -4.7247    2.6729    0.0000 C   0  0  0  0  0  0  0  0  0  0  0  0
   -6.2117    2.4754    0.0000 O   0  0  0  0  0  0  0  0  0  0  0  0
   -2.3233    1.6814    0.0000 N   0  0  0  0  0  0  0  0  0  0  0  0
   -1.4088    0.4924    0.0000 C   0  0  0  0  0  0  0  0  0  0  0  0
   -1.9813   -0.8941    0.0000 O   0  0  0  0  0  0  0  0  0  0  0  0
    0.0781    0.6899    0.0000 O   0  0  0  0  0  0  0  0  0  0  0  0
    0.9926   -0.4991    0.0000 C   0  0  0  0  0  0  0  0  0  0  0  0
    2.4796   -0.3017    0.0000 C   0  0  0  0  0  0  0  0  0  0  0  0
    3.5133   -1.3885    0.0000 C   0  0  0  0  0  0  0  0  0  0  0  0
    3.3973   -2.8841    0.0000 C   0  0  0  0  0  0  0  0  0  0  0  0
    4.6345   -3.7323    0.0000 C   0  0  0  0  0  0  0  0  0  0  0  0
    5.9876   -3.0850    0.0000 C   0  0  0  0  0  0  0  0  0  0  0  0
    6.1036   -1.5895    0.0000 C   0  0  0  0  0  0  0  0  0  0  0  0
    4.8665   -0.7412    0.0000 C   0  0  0  0  0  0  0  0  0  0  0  0
    4.6690    0.7457    0.0000 C   0  0  0  0  0  0  0  0  0  0  0  0
    5.6419    1.8874    0.0000 C   0  0  0  0  0  0  0  0  0  0  0  0
    5.1396    3.3008    0.0000 C   0  0  0  0  0  0  0  0  0  0  0  0
    3.6644    3.5725    0.0000 C   0  0  0  0  0  0  0  0  0  0  0  0
    2.6915    2.4308    0.0000 C   0  0  0  0  0  0  0  0  0  0  0  0
    3.1938    1.0174    0.0000 C   0  0  0  0  0  0  0  0  0  0  0  0
  1  2  1  0
  2  3  1  0
  2  4  1  0
  2  5  1  0
  5  6  1  0
  7  6  1  6
  7  8  1  0
  8  9  1  0
  7 10  1  0
 10 11  1  0
 11 12  2  0
 11 13  1  0
 13 14  1  0
 14 15  1  0
 15 16  1  0
 16 17  2  0
 17 18  1  0
 18 19  2  0
 19 20  1  0
 20 21  2  0
 21 22  1  0
 22 23  2  0
 23 24  1  0
 24 25  2  0
 25 26  1  0
 26 27  2  0
 27 15  1  0
 21 16  1  0
 27 22  1  0
M  END
>  <ID>  (63) 
DST-SER-004

>  <Name>  (63) 
Fmoc-D-Ser(tBu)-ol (Alcohol 2b)

>  <Primary_Group>  (63) 
8. γ-Chiral Serine PNA Platform (PS_Gamma Ser)

>  <Formula>  (63) 
C22H27NO4

>  <Molecular_Weight>  (63) 
369.46

>  <Exact_Mass>  (63) 
369.194

>  <IUPAC_Name>  (63) 
(R)-(9H-fluoren-9-yl)methyl (1-(tert-butoxy)-3-hydroxypropan-2-yl)carbamate

>  <SMILES>  (63) 
CC(C)(C)OC[C@H](CO)NC(=O)OCC1c2ccccc2-c3ccccc31

>  <Functional_Role>  (63) 
D-enantiomeric alcohol intermediate from reduction of Fmoc-D-Ser(tBu)-OH (Step 1).

>  <Source_Document>  (63) 
PS_Gamma Ser Monomers Step 1

>  <InChI>  (63) 
InChI=1S/C22H27NO4/c1-22(2,3)27-13-15(12-24)23-21(25)26-14-20-18-10-6-4-8-16(18)17-9-5-7-11-19(17)20/h4-11,15,20,24H,12-14H2,1-3H3,(H,23,25)/t15-/m0/s1

>  <InChIKey>  (63) 
CPEHAICNNOERSX-HNNXBMFYSA-N

$$$$
Fmoc-L-Ser(tBu)-H (Aldehyde 3a)
     RDKit          2D

 27 29  0  0  0  0  0  0  0  0999 V2000
   -8.3983   -0.5531    0.0000 C   0  0  0  0  0  0  0  0  0  0  0  0
   -7.5234    0.6653    0.0000 C   0  0  0  0  0  0  0  0  0  0  0  0
   -6.6485    1.8838    0.0000 C   0  0  0  0  0  0  0  0  0  0  0  0
   -8.7418    1.5402    0.0000 C   0  0  0  0  0  0  0  0  0  0  0  0
   -6.3049   -0.2096    0.0000 O   0  0  0  0  0  0  0  0  0  0  0  0
   -4.9380    0.4082    0.0000 C   0  0  0  0  0  0  0  0  0  0  0  0
   -3.7196   -0.4667    0.0000 C   0  0  0  0  0  0  0  0  0  0  0  0
   -3.8681   -1.9593    0.0000 C   0  0  0  0  0  0  0  0  0  0  0  0
   -5.2350   -2.5771    0.0000 O   0  0  0  0  0  0  0  0  0  0  0  0
   -2.3527    0.1511    0.0000 N   0  0  0  0  0  0  0  0  0  0  0  0
   -1.1343   -0.7238    0.0000 C   0  0  0  0  0  0  0  0  0  0  0  0
   -1.2828   -2.2165    0.0000 O   0  0  0  0  0  0  0  0  0  0  0  0
    0.2326   -0.1061    0.0000 O   0  0  0  0  0  0  0  0  0  0  0  0
    1.4510   -0.9810    0.0000 C   0  0  0  0  0  0  0  0  0  0  0  0
    2.8179   -0.3632    0.0000 C   0  0  0  0  0  0  0  0  0  0  0  0
    4.1211   -1.1059    0.0000 C   0  0  0  0  0  0  0  0  0  0  0  0
    4.4412   -2.5714    0.0000 C   0  0  0  0  0  0  0  0  0  0  0  0
    5.8703   -3.0269    0.0000 C   0  0  0  0  0  0  0  0  0  0  0  0
    6.9794   -2.0170    0.0000 C   0  0  0  0  0  0  0  0  0  0  0  0
    6.6594   -0.5516    0.0000 C   0  0  0  0  0  0  0  0  0  0  0  0
    5.2302   -0.0960    0.0000 C   0  0  0  0  0  0  0  0  0  0  0  0
    4.6125    1.2709    0.0000 C   0  0  0  0  0  0  0  0  0  0  0  0
    5.2149    2.6446    0.0000 C   0  0  0  0  0  0  0  0  0  0  0  0
    4.3265    3.8531    0.0000 C   0  0  0  0  0  0  0  0  0  0  0  0
    2.8356    3.6880    0.0000 C   0  0  0  0  0  0  0  0  0  0  0  0
    2.2331    2.3143    0.0000 C   0  0  0  0  0  0  0  0  0  0  0  0
    3.1216    1.1057    0.0000 C   0  0  0  0  0  0  0  0  0  0  0  0
  1  2  1  0
  2  3  1  0
  2  4  1  0
  2  5  1  0
  5  6  1  0
  7  6  1  6
  7  8  1  0
  8  9  2  0
  7 10  1  0
 10 11  1  0
 11 12  2  0
 11 13  1  0
 13 14  1  0
 14 15  1  0
 15 16  1  0
 16 17  2  0
 17 18  1  0
 18 19  2  0
 19 20  1  0
 20 21  2  0
 21 22  1  0
 22 23  2  0
 23 24  1  0
 24 25  2  0
 25 26  1  0
 26 27  2  0
 27 15  1  0
 21 16  1  0
 27 22  1  0
M  END
>  <ID>  (64) 
DST-SER-005

>  <Name>  (64) 
Fmoc-L-Ser(tBu)-H (Aldehyde 3a)

>  <Primary_Group>  (64) 
8. γ-Chiral Serine PNA Platform (PS_Gamma Ser)

>  <Formula>  (64) 
C22H25NO4

>  <Molecular_Weight>  (64) 
367.45

>  <Exact_Mass>  (64) 
367.1784

>  <IUPAC_Name>  (64) 
(S)-(9H-fluoren-9-yl)methyl (1-(tert-butoxy)-3-oxopropan-2-yl)carbamate

>  <SMILES>  (64) 
CC(C)(C)OC[C@@H](C=O)NC(=O)OCC1c2ccccc2-c3ccccc31

>  <Functional_Role>  (64) 
Chiral (S)-aldehyde obtained by Dess-Martin oxidation in wet DCM under nitrogen (Step 2).

>  <Source_Document>  (64) 
PS_Gamma Ser Monomers Step 2

>  <InChI>  (64) 
InChI=1S/C22H25NO4/c1-22(2,3)27-13-15(12-24)23-21(25)26-14-20-18-10-6-4-8-16(18)17-9-5-7-11-19(17)20/h4-12,15,20H,13-14H2,1-3H3,(H,23,25)/t15-/m1/s1

>  <InChIKey>  (64) 
MWRZFXOQMUTNRK-OAHLLOKOSA-N

$$$$
Fmoc-D-Ser(tBu)-H (Aldehyde 3b)
     RDKit          2D

 27 29  0  0  0  0  0  0  0  0999 V2000
   -8.3983   -0.5531    0.0000 C   0  0  0  0  0  0  0  0  0  0  0  0
   -7.5234    0.6653    0.0000 C   0  0  0  0  0  0  0  0  0  0  0  0
   -6.6485    1.8838    0.0000 C   0  0  0  0  0  0  0  0  0  0  0  0
   -8.7418    1.5402    0.0000 C   0  0  0  0  0  0  0  0  0  0  0  0
   -6.3049   -0.2096    0.0000 O   0  0  0  0  0  0  0  0  0  0  0  0
   -4.9380    0.4082    0.0000 C   0  0  0  0  0  0  0  0  0  0  0  0
   -3.7196   -0.4667    0.0000 C   0  0  0  0  0  0  0  0  0  0  0  0
   -3.8681   -1.9593    0.0000 C   0  0  0  0  0  0  0  0  0  0  0  0
   -5.2350   -2.5771    0.0000 O   0  0  0  0  0  0  0  0  0  0  0  0
   -2.3527    0.1511    0.0000 N   0  0  0  0  0  0  0  0  0  0  0  0
   -1.1343   -0.7238    0.0000 C   0  0  0  0  0  0  0  0  0  0  0  0
   -1.2828   -2.2165    0.0000 O   0  0  0  0  0  0  0  0  0  0  0  0
    0.2326   -0.1061    0.0000 O   0  0  0  0  0  0  0  0  0  0  0  0
    1.4510   -0.9810    0.0000 C   0  0  0  0  0  0  0  0  0  0  0  0
    2.8179   -0.3632    0.0000 C   0  0  0  0  0  0  0  0  0  0  0  0
    4.1211   -1.1059    0.0000 C   0  0  0  0  0  0  0  0  0  0  0  0
    4.4412   -2.5714    0.0000 C   0  0  0  0  0  0  0  0  0  0  0  0
    5.8703   -3.0269    0.0000 C   0  0  0  0  0  0  0  0  0  0  0  0
    6.9794   -2.0170    0.0000 C   0  0  0  0  0  0  0  0  0  0  0  0
    6.6594   -0.5516    0.0000 C   0  0  0  0  0  0  0  0  0  0  0  0
    5.2302   -0.0960    0.0000 C   0  0  0  0  0  0  0  0  0  0  0  0
    4.6125    1.2709    0.0000 C   0  0  0  0  0  0  0  0  0  0  0  0
    5.2149    2.6446    0.0000 C   0  0  0  0  0  0  0  0  0  0  0  0
    4.3265    3.8531    0.0000 C   0  0  0  0  0  0  0  0  0  0  0  0
    2.8356    3.6880    0.0000 C   0  0  0  0  0  0  0  0  0  0  0  0
    2.2331    2.3143    0.0000 C   0  0  0  0  0  0  0  0  0  0  0  0
    3.1216    1.1057    0.0000 C   0  0  0  0  0  0  0  0  0  0  0  0
  1  2  1  0
  2  3  1  0
  2  4  1  0
  2  5  1  0
  5  6  1  0
  7  6  1  1
  7  8  1  0
  8  9  2  0
  7 10  1  0
 10 11  1  0
 11 12  2  0
 11 13  1  0
 13 14  1  0
 14 15  1  0
 15 16  1  0
 16 17  2  0
 17 18  1  0
 18 19  2  0
 19 20  1  0
 20 21  2  0
 21 22  1  0
 22 23  2  0
 23 24  1  0
 24 25  2  0
 25 26  1  0
 26 27  2  0
 27 15  1  0
 21 16  1  0
 27 22  1  0
M  END
>  <ID>  (65) 
DST-SER-006

>  <Name>  (65) 
Fmoc-D-Ser(tBu)-H (Aldehyde 3b)

>  <Primary_Group>  (65) 
8. γ-Chiral Serine PNA Platform (PS_Gamma Ser)

>  <Formula>  (65) 
C22H25NO4

>  <Molecular_Weight>  (65) 
367.45

>  <Exact_Mass>  (65) 
367.1784

>  <IUPAC_Name>  (65) 
(R)-(9H-fluoren-9-yl)methyl (1-(tert-butoxy)-3-oxopropan-2-yl)carbamate

>  <SMILES>  (65) 
CC(C)(C)OC[C@H](C=O)NC(=O)OCC1c2ccccc2-c3ccccc31

>  <Functional_Role>  (65) 
Chiral (R)-aldehyde intermediate from DMP oxidation (Step 2).

>  <Source_Document>  (65) 
PS_Gamma Ser Monomers Step 2

>  <InChI>  (65) 
InChI=1S/C22H25NO4/c1-22(2,3)27-13-15(12-24)23-21(25)26-14-20-18-10-6-4-8-16(18)17-9-5-7-11-19(17)20/h4-12,15,20H,13-14H2,1-3H3,(H,23,25)/t15-/m0/s1

>  <InChIKey>  (65) 
MWRZFXOQMUTNRK-HNNXBMFYSA-N

$$$$
L-γ-Serine Backbone (Compound 4a)
     RDKit          2D

 32 34  0  0  0  0  0  0  0  0999 V2000
   -6.0435   -2.5973    0.0000 C   0  0  0  0  0  0  0  0  0  0  0  0
   -4.5776   -2.9153    0.0000 C   0  0  0  0  0  0  0  0  0  0  0  0
   -3.1117   -3.2334    0.0000 C   0  0  0  0  0  0  0  0  0  0  0  0
   -4.8956   -4.3812    0.0000 C   0  0  0  0  0  0  0  0  0  0  0  0
   -4.2595   -1.4494    0.0000 O   0  0  0  0  0  0  0  0  0  0  0  0
   -2.8310   -0.9919    0.0000 C   0  0  0  0  0  0  0  0  0  0  0  0
   -2.5130    0.4740    0.0000 C   0  0  0  0  0  0  0  0  0  0  0  0
   -3.6234    1.4824    0.0000 C   0  0  0  0  0  0  0  0  0  0  0  0
   -5.0520    1.0249    0.0000 N   0  0  0  0  0  0  0  0  0  0  0  0
   -6.1624    2.0332    0.0000 C   0  0  0  0  0  0  0  0  0  0  0  0
   -7.5910    1.5757    0.0000 C   0  0  0  0  0  0  0  0  0  0  0  0
   -7.9090    0.1098    0.0000 O   0  0  0  0  0  0  0  0  0  0  0  0
   -8.7014    2.5841    0.0000 O   0  0  0  0  0  0  0  0  0  0  0  0
  -10.1300    2.1266    0.0000 C   0  0  0  0  0  0  0  0  0  0  0  0
   -1.0844    0.9315    0.0000 N   0  0  0  0  0  0  0  0  0  0  0  0
    0.0261   -0.0769    0.0000 C   0  0  0  0  0  0  0  0  0  0  0  0
   -0.2920   -1.5428    0.0000 O   0  0  0  0  0  0  0  0  0  0  0  0
    1.4546    0.3806    0.0000 O   0  0  0  0  0  0  0  0  0  0  0  0
    2.5651   -0.6278    0.0000 C   0  0  0  0  0  0  0  0  0  0  0  0
    3.9936   -0.1703    0.0000 C   0  0  0  0  0  0  0  0  0  0  0  0
    5.2034   -1.0571    0.0000 C   0  0  0  0  0  0  0  0  0  0  0  0
    5.3539   -2.5495    0.0000 C   0  0  0  0  0  0  0  0  0  0  0  0
    6.7216   -3.1654    0.0000 C   0  0  0  0  0  0  0  0  0  0  0  0
    7.9388   -2.2888    0.0000 C   0  0  0  0  0  0  0  0  0  0  0  0
    7.7883   -0.7964    0.0000 C   0  0  0  0  0  0  0  0  0  0  0  0
    6.4206   -0.1805    0.0000 C   0  0  0  0  0  0  0  0  0  0  0  0
    5.9631    1.2480    0.0000 C   0  0  0  0  0  0  0  0  0  0  0  0
    6.7186    2.5439    0.0000 C   0  0  0  0  0  0  0  0  0  0  0  0
    5.9741    3.8461    0.0000 C   0  0  0  0  0  0  0  0  0  0  0  0
    4.4741    3.8524    0.0000 C   0  0  0  0  0  0  0  0  0  0  0  0
    3.7186    2.5565    0.0000 C   0  0  0  0  0  0  0  0  0  0  0  0
    4.4631    1.2543    0.0000 C   0  0  0  0  0  0  0  0  0  0  0  0
  1  2  1  0
  2  3  1  0
  2  4  1  0
  2  5  1  0
  5  6  1  0
  7  6  1  1
  7  8  1  0
  8  9  1  0
  9 10  1  0
 10 11  1  0
 11 12  2  0
 11 13  1  0
 13 14  1  0
  7 15  1  0
 15 16  1  0
 16 17  2  0
 16 18  1  0
 18 19  1  0
 19 20  1  0
 20 21  1  0
 21 22  2  0
 22 23  1  0
 23 24  2  0
 24 25  1  0
 25 26  2  0
 26 27  1  0
 27 28  2  0
 28 29  1  0
 29 30  2  0
 30 31  1  0
 31 32  2  0
 32 20  1  0
 26 21  1  0
 32 27  1  0
M  END
>  <ID>  (66) 
DST-SER-007

>  <Name>  (66) 
L-γ-Serine Backbone (Compound 4a)

>  <Primary_Group>  (66) 
8. γ-Chiral Serine PNA Platform (PS_Gamma Ser)

>  <Formula>  (66) 
C25H32N2O5

>  <Molecular_Weight>  (66) 
440.54

>  <Exact_Mass>  (66) 
440.2311

>  <IUPAC_Name>  (66) 
methyl N-((S)-2-((((9H-fluoren-9-yl)methoxy)carbonyl)amino)-3-(tert-butoxy)propyl)glycinate

>  <SMILES>  (66) 
CC(C)(C)OC[C@@H](CNCC(=O)OC)NC(=O)OCC1c2ccccc2-c3ccccc31

>  <Functional_Role>  (66) 
Chiral L-serine pseudopeptide backbone (MW 440.54 Da) prepared by reductive amination with glycine methyl ester (Step 3).

>  <Source_Document>  (66) 
PS_Gamma Ser Monomers Step 3

>  <InChI>  (66) 
InChI=1S/C25H32N2O5/c1-25(2,3)32-15-17(13-26-14-23(28)30-4)27-24(29)31-16-22-20-11-7-5-9-18(20)19-10-6-8-12-21(19)22/h5-12,17,22,26H,13-16H2,1-4H3,(H,27,29)/t17-/m1/s1

>  <InChIKey>  (66) 
JOTZLVLUSRXWMN-QGZVFWFLSA-N

$$$$
D-γ-Serine Backbone (Compound 4b)
     RDKit          2D

 32 34  0  0  0  0  0  0  0  0999 V2000
   -6.0435   -2.5973    0.0000 C   0  0  0  0  0  0  0  0  0  0  0  0
   -4.5776   -2.9153    0.0000 C   0  0  0  0  0  0  0  0  0  0  0  0
   -3.1117   -3.2334    0.0000 C   0  0  0  0  0  0  0  0  0  0  0  0
   -4.8956   -4.3812    0.0000 C   0  0  0  0  0  0  0  0  0  0  0  0
   -4.2595   -1.4494    0.0000 O   0  0  0  0  0  0  0  0  0  0  0  0
   -2.8310   -0.9919    0.0000 C   0  0  0  0  0  0  0  0  0  0  0  0
   -2.5130    0.4740    0.0000 C   0  0  0  0  0  0  0  0  0  0  0  0
   -3.6234    1.4824    0.0000 C   0  0  0  0  0  0  0  0  0  0  0  0
   -5.0520    1.0249    0.0000 N   0  0  0  0  0  0  0  0  0  0  0  0
   -6.1624    2.0332    0.0000 C   0  0  0  0  0  0  0  0  0  0  0  0
   -7.5910    1.5757    0.0000 C   0  0  0  0  0  0  0  0  0  0  0  0
   -7.9090    0.1098    0.0000 O   0  0  0  0  0  0  0  0  0  0  0  0
   -8.7014    2.5841    0.0000 O   0  0  0  0  0  0  0  0  0  0  0  0
  -10.1300    2.1266    0.0000 C   0  0  0  0  0  0  0  0  0  0  0  0
   -1.0844    0.9315    0.0000 N   0  0  0  0  0  0  0  0  0  0  0  0
    0.0261   -0.0769    0.0000 C   0  0  0  0  0  0  0  0  0  0  0  0
   -0.2920   -1.5428    0.0000 O   0  0  0  0  0  0  0  0  0  0  0  0
    1.4546    0.3806    0.0000 O   0  0  0  0  0  0  0  0  0  0  0  0
    2.5651   -0.6278    0.0000 C   0  0  0  0  0  0  0  0  0  0  0  0
    3.9936   -0.1703    0.0000 C   0  0  0  0  0  0  0  0  0  0  0  0
    5.2034   -1.0571    0.0000 C   0  0  0  0  0  0  0  0  0  0  0  0
    5.3539   -2.5495    0.0000 C   0  0  0  0  0  0  0  0  0  0  0  0
    6.7216   -3.1654    0.0000 C   0  0  0  0  0  0  0  0  0  0  0  0
    7.9388   -2.2888    0.0000 C   0  0  0  0  0  0  0  0  0  0  0  0
    7.7883   -0.7964    0.0000 C   0  0  0  0  0  0  0  0  0  0  0  0
    6.4206   -0.1805    0.0000 C   0  0  0  0  0  0  0  0  0  0  0  0
    5.9631    1.2480    0.0000 C   0  0  0  0  0  0  0  0  0  0  0  0
    6.7186    2.5439    0.0000 C   0  0  0  0  0  0  0  0  0  0  0  0
    5.9741    3.8461    0.0000 C   0  0  0  0  0  0  0  0  0  0  0  0
    4.4741    3.8524    0.0000 C   0  0  0  0  0  0  0  0  0  0  0  0
    3.7186    2.5565    0.0000 C   0  0  0  0  0  0  0  0  0  0  0  0
    4.4631    1.2543    0.0000 C   0  0  0  0  0  0  0  0  0  0  0  0
  1  2  1  0
  2  3  1  0
  2  4  1  0
  2  5  1  0
  5  6  1  0
  7  6  1  6
  7  8  1  0
  8  9  1  0
  9 10  1  0
 10 11  1  0
 11 12  2  0
 11 13  1  0
 13 14  1  0
  7 15  1  0
 15 16  1  0
 16 17  2  0
 16 18  1  0
 18 19  1  0
 19 20  1  0
 20 21  1  0
 21 22  2  0
 22 23  1  0
 23 24  2  0
 24 25  1  0
 25 26  2  0
 26 27  1  0
 27 28  2  0
 28 29  1  0
 29 30  2  0
 30 31  1  0
 31 32  2  0
 32 20  1  0
 26 21  1  0
 32 27  1  0
M  END
>  <ID>  (67) 
DST-SER-008

>  <Name>  (67) 
D-γ-Serine Backbone (Compound 4b)

>  <Primary_Group>  (67) 
8. γ-Chiral Serine PNA Platform (PS_Gamma Ser)

>  <Formula>  (67) 
C25H32N2O5

>  <Molecular_Weight>  (67) 
440.54

>  <Exact_Mass>  (67) 
440.2311

>  <IUPAC_Name>  (67) 
methyl N-((R)-2-((((9H-fluoren-9-yl)methoxy)carbonyl)amino)-3-(tert-butoxy)propyl)glycinate

>  <SMILES>  (67) 
CC(C)(C)OC[C@H](CNCC(=O)OC)NC(=O)OCC1c2ccccc2-c3ccccc31

>  <Functional_Role>  (67) 
Chiral D-serine pseudopeptide backbone (MW 440.54 Da) (Step 3).

>  <Source_Document>  (67) 
PS_Gamma Ser Monomers Step 3

>  <InChI>  (67) 
InChI=1S/C25H32N2O5/c1-25(2,3)32-15-17(13-26-14-23(28)30-4)27-24(29)31-16-22-20-11-7-5-9-18(20)19-10-6-8-12-21(19)22/h5-12,17,22,26H,13-16H2,1-4H3,(H,27,29)/t17-/m0/s1

>  <InChIKey>  (67) 
JOTZLVLUSRXWMN-KRWDZBQOSA-N

$$$$
L-γ-Boc-Ser-PNA-OMe (Compound 5a)
     RDKit          2D

 39 41  0  0  0  0  0  0  0  0999 V2000
   -4.6843   -2.7890    0.0000 C   0  0  0  0  0  0  0  0  0  0  0  0
   -3.2120   -3.0761    0.0000 C   0  0  0  0  0  0  0  0  0  0  0  0
   -1.7398   -3.3632    0.0000 C   0  0  0  0  0  0  0  0  0  0  0  0
   -3.4992   -4.5484    0.0000 C   0  0  0  0  0  0  0  0  0  0  0  0
   -2.9249   -1.6038    0.0000 O   0  0  0  0  0  0  0  0  0  0  0  0
   -1.5063   -1.1164    0.0000 C   0  0  0  0  0  0  0  0  0  0  0  0
   -1.2192    0.3559    0.0000 C   0  0  0  0  0  0  0  0  0  0  0  0
   -2.3506    1.3407    0.0000 C   0  0  0  0  0  0  0  0  0  0  0  0
   -3.7692    0.8532    0.0000 N   0  0  0  0  0  0  0  0  0  0  0  0
   -4.0564   -0.6190    0.0000 C   0  0  0  0  0  0  0  0  0  0  0  0
   -5.4749   -1.1065    0.0000 C   0  0  0  0  0  0  0  0  0  0  0  0
   -6.6064   -0.1217    0.0000 O   0  0  0  0  0  0  0  0  0  0  0  0
   -5.7621   -2.5788    0.0000 O   0  0  0  0  0  0  0  0  0  0  0  0
   -7.1806   -3.0662    0.0000 C   0  0  0  0  0  0  0  0  0  0  0  0
   -4.9007    1.8380    0.0000 C   0  0  0  0  0  0  0  0  0  0  0  0
   -4.6135    3.3103    0.0000 O   0  0  0  0  0  0  0  0  0  0  0  0
   -6.3193    1.3505    0.0000 O   0  0  0  0  0  0  0  0  0  0  0  0
   -7.4507    2.3353    0.0000 C   0  0  0  0  0  0  0  0  0  0  0  0
   -8.4355    1.2039    0.0000 C   0  0  0  0  0  0  0  0  0  0  0  0
   -6.4659    3.4668    0.0000 C   0  0  0  0  0  0  0  0  0  0  0  0
   -8.5822    3.3201    0.0000 C   0  0  0  0  0  0  0  0  0  0  0  0
    0.1994    0.8434    0.0000 N   0  0  0  0  0  0  0  0  0  0  0  0
    1.3308   -0.1414    0.0000 C   0  0  0  0  0  0  0  0  0  0  0  0
    1.0437   -1.6137    0.0000 O   0  0  0  0  0  0  0  0  0  0  0  0
    2.7494    0.3460    0.0000 O   0  0  0  0  0  0  0  0  0  0  0  0
    3.8809   -0.6387    0.0000 C   0  0  0  0  0  0  0  0  0  0  0  0
    5.2995   -0.1513    0.0000 C   0  0  0  0  0  0  0  0  0  0  0  0
    6.5277   -1.0124    0.0000 C   0  0  0  0  0  0  0  0  0  0  0  0
    6.7095   -2.5013    0.0000 C   0  0  0  0  0  0  0  0  0  0  0  0
    8.0899   -3.0883    0.0000 C   0  0  0  0  0  0  0  0  0  0  0  0
    9.2884   -2.1863    0.0000 C   0  0  0  0  0  0  0  0  0  0  0  0
    9.1066   -0.6974    0.0000 C   0  0  0  0  0  0  0  0  0  0  0  0
    7.7262   -0.1104    0.0000 C   0  0  0  0  0  0  0  0  0  0  0  0
    7.2387    1.3082    0.0000 C   0  0  0  0  0  0  0  0  0  0  0  0
    7.9667    2.6196    0.0000 C   0  0  0  0  0  0  0  0  0  0  0  0
    7.1950    3.9059    0.0000 C   0  0  0  0  0  0  0  0  0  0  0  0
    5.6952    3.8806    0.0000 C   0  0  0  0  0  0  0  0  0  0  0  0
    4.9672    2.5691    0.0000 C   0  0  0  0  0  0  0  0  0  0  0  0
    5.7389    1.2829    0.0000 C   0  0  0  0  0  0  0  0  0  0  0  0
  1  2  1  0
  2  3  1  0
  2  4  1  0
  2  5  1  0
  5  6  1  0
  7  6  1  1
  7  8  1  0
  8  9  1  0
  9 10  1  0
 10 11  1  0
 11 12  2  0
 11 13  1  0
 13 14  1  0
  9 15  1  0
 15 16  2  0
 15 17  1  0
 17 18  1  0
 18 19  1  0
 18 20  1  0
 18 21  1  0
  7 22  1  0
 22 23  1  0
 23 24  2  0
 23 25  1  0
 25 26  1  0
 26 27  1  0
 27 28  1  0
 28 29  2  0
 29 30  1  0
 30 31  2  0
 31 32  1  0
 32 33  2  0
 33 34  1  0
 34 35  2  0
 35 36  1  0
 36 37  2  0
 37 38  1  0
 38 39  2  0
 39 27  1  0
 33 28  1  0
 39 34  1  0
M  END
>  <ID>  (68) 
DST-SER-009

>  <Name>  (68) 
L-γ-Boc-Ser-PNA-OMe (Compound 5a)

>  <Primary_Group>  (68) 
8. γ-Chiral Serine PNA Platform (PS_Gamma Ser)

>  <Formula>  (68) 
C30H40N2O7

>  <Molecular_Weight>  (68) 
540.66

>  <Exact_Mass>  (68) 
540.2836

>  <IUPAC_Name>  (68) 
methyl N-((S)-2-((((9H-fluoren-9-yl)methoxy)carbonyl)amino)-3-(tert-butoxy)propyl)-N-(tert-butoxycarbonyl)glycinate

>  <SMILES>  (68) 
CC(C)(C)OC[C@@H](CN(CC(=O)OC)C(=O)OC(C)(C)C)NC(=O)OCC1c2ccccc2-c3ccccc31

>  <Functional_Role>  (68) 
Boc-protected methyl ester intermediate towards *L-Ser* abasic monomer (Step 4).

>  <Source_Document>  (68) 
PS_Gamma Ser Monomers Step 4

>  <InChI>  (68) 
InChI=1S/C30H40N2O7/c1-29(2,3)38-18-20(16-32(17-26(33)36-7)28(35)39-30(4,5)6)31-27(34)37-19-25-23-14-10-8-12-21(23)22-13-9-11-15-24(22)25/h8-15,20,25H,16-19H2,1-7H3,(H,31,34)/t20-/m1/s1

>  <InChIKey>  (68) 
CPIGQWJJOCKVNT-HXUWFJFHSA-N

$$$$
D-γ-Boc-Ser-PNA-OMe (Compound 5b)
     RDKit          2D

 39 41  0  0  0  0  0  0  0  0999 V2000
   -4.6843   -2.7890    0.0000 C   0  0  0  0  0  0  0  0  0  0  0  0
   -3.2120   -3.0761    0.0000 C   0  0  0  0  0  0  0  0  0  0  0  0
   -1.7398   -3.3632    0.0000 C   0  0  0  0  0  0  0  0  0  0  0  0
   -3.4992   -4.5484    0.0000 C   0  0  0  0  0  0  0  0  0  0  0  0
   -2.9249   -1.6038    0.0000 O   0  0  0  0  0  0  0  0  0  0  0  0
   -1.5063   -1.1164    0.0000 C   0  0  0  0  0  0  0  0  0  0  0  0
   -1.2192    0.3559    0.0000 C   0  0  0  0  0  0  0  0  0  0  0  0
   -2.3506    1.3407    0.0000 C   0  0  0  0  0  0  0  0  0  0  0  0
   -3.7692    0.8532    0.0000 N   0  0  0  0  0  0  0  0  0  0  0  0
   -4.0564   -0.6190    0.0000 C   0  0  0  0  0  0  0  0  0  0  0  0
   -5.4749   -1.1065    0.0000 C   0  0  0  0  0  0  0  0  0  0  0  0
   -6.6064   -0.1217    0.0000 O   0  0  0  0  0  0  0  0  0  0  0  0
   -5.7621   -2.5788    0.0000 O   0  0  0  0  0  0  0  0  0  0  0  0
   -7.1806   -3.0662    0.0000 C   0  0  0  0  0  0  0  0  0  0  0  0
   -4.9007    1.8380    0.0000 C   0  0  0  0  0  0  0  0  0  0  0  0
   -4.6135    3.3103    0.0000 O   0  0  0  0  0  0  0  0  0  0  0  0
   -6.3193    1.3505    0.0000 O   0  0  0  0  0  0  0  0  0  0  0  0
   -7.4507    2.3353    0.0000 C   0  0  0  0  0  0  0  0  0  0  0  0
   -8.4355    1.2039    0.0000 C   0  0  0  0  0  0  0  0  0  0  0  0
   -6.4659    3.4668    0.0000 C   0  0  0  0  0  0  0  0  0  0  0  0
   -8.5822    3.3201    0.0000 C   0  0  0  0  0  0  0  0  0  0  0  0
    0.1994    0.8434    0.0000 N   0  0  0  0  0  0  0  0  0  0  0  0
    1.3308   -0.1414    0.0000 C   0  0  0  0  0  0  0  0  0  0  0  0
    1.0437   -1.6137    0.0000 O   0  0  0  0  0  0  0  0  0  0  0  0
    2.7494    0.3460    0.0000 O   0  0  0  0  0  0  0  0  0  0  0  0
    3.8809   -0.6387    0.0000 C   0  0  0  0  0  0  0  0  0  0  0  0
    5.2995   -0.1513    0.0000 C   0  0  0  0  0  0  0  0  0  0  0  0
    6.5277   -1.0124    0.0000 C   0  0  0  0  0  0  0  0  0  0  0  0
    6.7095   -2.5013    0.0000 C   0  0  0  0  0  0  0  0  0  0  0  0
    8.0899   -3.0883    0.0000 C   0  0  0  0  0  0  0  0  0  0  0  0
    9.2884   -2.1863    0.0000 C   0  0  0  0  0  0  0  0  0  0  0  0
    9.1066   -0.6974    0.0000 C   0  0  0  0  0  0  0  0  0  0  0  0
    7.7262   -0.1104    0.0000 C   0  0  0  0  0  0  0  0  0  0  0  0
    7.2387    1.3082    0.0000 C   0  0  0  0  0  0  0  0  0  0  0  0
    7.9667    2.6196    0.0000 C   0  0  0  0  0  0  0  0  0  0  0  0
    7.1950    3.9059    0.0000 C   0  0  0  0  0  0  0  0  0  0  0  0
    5.6952    3.8806    0.0000 C   0  0  0  0  0  0  0  0  0  0  0  0
    4.9672    2.5691    0.0000 C   0  0  0  0  0  0  0  0  0  0  0  0
    5.7389    1.2829    0.0000 C   0  0  0  0  0  0  0  0  0  0  0  0
  1  2  1  0
  2  3  1  0
  2  4  1  0
  2  5  1  0
  5  6  1  0
  7  6  1  6
  7  8  1  0
  8  9  1  0
  9 10  1  0
 10 11  1  0
 11 12  2  0
 11 13  1  0
 13 14  1  0
  9 15  1  0
 15 16  2  0
 15 17  1  0
 17 18  1  0
 18 19  1  0
 18 20  1  0
 18 21  1  0
  7 22  1  0
 22 23  1  0
 23 24  2  0
 23 25  1  0
 25 26  1  0
 26 27  1  0
 27 28  1  0
 28 29  2  0
 29 30  1  0
 30 31  2  0
 31 32  1  0
 32 33  2  0
 33 34  1  0
 34 35  2  0
 35 36  1  0
 36 37  2  0
 37 38  1  0
 38 39  2  0
 39 27  1  0
 33 28  1  0
 39 34  1  0
M  END
>  <ID>  (69) 
DST-SER-010

>  <Name>  (69) 
D-γ-Boc-Ser-PNA-OMe (Compound 5b)

>  <Primary_Group>  (69) 
8. γ-Chiral Serine PNA Platform (PS_Gamma Ser)

>  <Formula>  (69) 
C30H40N2O7

>  <Molecular_Weight>  (69) 
540.66

>  <Exact_Mass>  (69) 
540.2836

>  <IUPAC_Name>  (69) 
methyl N-((R)-2-((((9H-fluoren-9-yl)methoxy)carbonyl)amino)-3-(tert-butoxy)propyl)-N-(tert-butoxycarbonyl)glycinate

>  <SMILES>  (69) 
CC(C)(C)OC[C@H](CN(CC(=O)OC)C(=O)OC(C)(C)C)NC(=O)OCC1c2ccccc2-c3ccccc31

>  <Functional_Role>  (69) 
D-enantiomeric Boc-protected methyl ester intermediate towards *D-Ser* (Step 4).

>  <Source_Document>  (69) 
PS_Gamma Ser Monomers Step 4

>  <InChI>  (69) 
InChI=1S/C30H40N2O7/c1-29(2,3)38-18-20(16-32(17-26(33)36-7)28(35)39-30(4,5)6)31-27(34)37-19-25-23-14-10-8-12-21(23)22-13-9-11-15-24(22)25/h8-15,20,25H,16-19H2,1-7H3,(H,31,34)/t20-/m0/s1

>  <InChIKey>  (69) 
CPIGQWJJOCKVNT-FQEVSTJZSA-N

$$$$
Blank Monomer - *D-Ser* (Compound 6b / Boc-γ-D-Ser(tBu)-PNA-COOH)
     RDKit          2D

 38 40  0  0  0  0  0  0  0  0999 V2000
   -4.8097   -2.9749    0.0000 C   0  0  0  0  0  0  0  0  0  0  0  0
   -3.3316   -3.2299    0.0000 C   0  0  0  0  0  0  0  0  0  0  0  0
   -1.8534   -3.4850    0.0000 C   0  0  0  0  0  0  0  0  0  0  0  0
   -3.5867   -4.7081    0.0000 C   0  0  0  0  0  0  0  0  0  0  0  0
   -3.0765   -1.7518    0.0000 O   0  0  0  0  0  0  0  0  0  0  0  0
   -1.6689   -1.2336    0.0000 C   0  0  0  0  0  0  0  0  0  0  0  0
   -1.4138    0.2445    0.0000 C   0  0  0  0  0  0  0  0  0  0  0  0
   -2.5664    1.2045    0.0000 C   0  0  0  0  0  0  0  0  0  0  0  0
   -3.9740    0.6863    0.0000 N   0  0  0  0  0  0  0  0  0  0  0  0
   -4.2291   -0.7918    0.0000 C   0  0  0  0  0  0  0  0  0  0  0  0
   -5.6368   -1.3100    0.0000 C   0  0  0  0  0  0  0  0  0  0  0  0
   -6.7893   -0.3500    0.0000 O   0  0  0  0  0  0  0  0  0  0  0  0
   -5.8918   -2.7882    0.0000 O   0  0  0  0  0  0  0  0  0  0  0  0
   -5.1266    1.6463    0.0000 C   0  0  0  0  0  0  0  0  0  0  0  0
   -4.8716    3.1245    0.0000 O   0  0  0  0  0  0  0  0  0  0  0  0
   -6.5343    1.1281    0.0000 O   0  0  0  0  0  0  0  0  0  0  0  0
   -7.6869    2.0881    0.0000 C   0  0  0  0  0  0  0  0  0  0  0  0
   -8.6468    0.9355    0.0000 C   0  0  0  0  0  0  0  0  0  0  0  0
   -6.7269    3.2407    0.0000 C   0  0  0  0  0  0  0  0  0  0  0  0
   -8.8394    3.0481    0.0000 C   0  0  0  0  0  0  0  0  0  0  0  0
   -0.0061    0.7627    0.0000 N   0  0  0  0  0  0  0  0  0  0  0  0
    1.1464   -0.1973    0.0000 C   0  0  0  0  0  0  0  0  0  0  0  0
    0.8914   -1.6754    0.0000 O   0  0  0  0  0  0  0  0  0  0  0  0
    2.5541    0.3209    0.0000 O   0  0  0  0  0  0  0  0  0  0  0  0
    3.7067   -0.6390    0.0000 C   0  0  0  0  0  0  0  0  0  0  0  0
    5.1143   -0.1209    0.0000 C   0  0  0  0  0  0  0  0  0  0  0  0
    6.3609   -0.9551    0.0000 C   0  0  0  0  0  0  0  0  0  0  0  0
    6.5751   -2.4397    0.0000 C   0  0  0  0  0  0  0  0  0  0  0  0
    7.9680   -2.9965    0.0000 C   0  0  0  0  0  0  0  0  0  0  0  0
    9.1466   -2.0687    0.0000 C   0  0  0  0  0  0  0  0  0  0  0  0
    8.9324   -0.5841    0.0000 C   0  0  0  0  0  0  0  0  0  0  0  0
    7.5396   -0.0273    0.0000 C   0  0  0  0  0  0  0  0  0  0  0  0
    7.0214    1.3804    0.0000 C   0  0  0  0  0  0  0  0  0  0  0  0
    7.7208    2.7074    0.0000 C   0  0  0  0  0  0  0  0  0  0  0  0
    6.9212    3.9765    0.0000 C   0  0  0  0  0  0  0  0  0  0  0  0
    5.4223    3.9187    0.0000 C   0  0  0  0  0  0  0  0  0  0  0  0
    4.7230    2.5917    0.0000 C   0  0  0  0  0  0  0  0  0  0  0  0
    5.5225    1.3225    0.0000 C   0  0  0  0  0  0  0  0  0  0  0  0
  1  2  1  0
  2  3  1  0
  2  4  1  0
  2  5  1  0
  5  6  1  0
  7  6  1  6
  7  8  1  0
  8  9  1  0
  9 10  1  0
 10 11  1  0
 11 12  2  0
 11 13  1  0
  9 14  1  0
 14 15  2  0
 14 16  1  0
 16 17  1  0
 17 18  1  0
 17 19  1  0
 17 20  1  0
  7 21  1  0
 21 22  1  0
 22 23  2  0
 22 24  1  0
 24 25  1  0
 25 26  1  0
 26 27  1  0
 27 28  2  0
 28 29  1  0
 29 30  2  0
 30 31  1  0
 31 32  2  0
 32 33  1  0
 33 34  2  0
 34 35  1  0
 35 36  2  0
 36 37  1  0
 37 38  2  0
 38 26  1  0
 32 27  1  0
 38 33  1  0
M  END
>  <ID>  (70) 
DST-SER-011

>  <Name>  (70) 
Blank Monomer - *D-Ser* (Compound 6b / Boc-γ-D-Ser(tBu)-PNA-COOH)

>  <Primary_Group>  (70) 
8. γ-Chiral Serine PNA Platform (PS_Gamma Ser)

>  <Formula>  (70) 
C29H38N2O7

>  <Molecular_Weight>  (70) 
526.63

>  <Exact_Mass>  (70) 
526.2679

>  <IUPAC_Name>  (70) 
N-((R)-2-((((9H-fluoren-9-yl)methoxy)carbonyl)amino)-3-(tert-butoxy)propyl)-N-(tert-butoxycarbonyl)glycine

>  <SMILES>  (70) 
CC(C)(C)OC[C@H](CN(CC(=O)O)C(=O)OC(C)(C)C)NC(=O)OCC1c2ccccc2-c3ccccc31

>  <Functional_Role>  (70) 
Chiral (R)-D-serine abasic blank monomer (RP-HPLC CBU-2 Tr = 6.459 min) (Step 5).

>  <Source_Document>  (70) 
PS_Gamma Ser Monomers Step 5 & Table 2

>  <InChI>  (70) 
InChI=1S/C29H38N2O7/c1-28(2,3)37-17-19(15-31(16-25(32)33)27(35)38-29(4,5)6)30-26(34)36-18-24-22-13-9-7-11-20(22)21-12-8-10-14-23(21)24/h7-14,19,24H,15-18H2,1-6H3,(H,30,34)(H,32,33)/t19-/m0/s1

>  <InChIKey>  (70) 
LBQVHNGCJVJCAP-IBGZPJMESA-N

$$$$
Cpeg (Fmoc-γ-(mini-PEG)-C(Bhoc)-PNA-OH)
     RDKit          2D

 62 67  0  0  0  0  0  0  0  0999 V2000
    7.6073  -13.0067    0.0000 C   0  0  0  0  0  0  0  0  0  0  0  0
    8.0496  -11.5734    0.0000 O   0  0  0  0  0  0  0  0  0  0  0  0
    7.0295  -10.4736    0.0000 C   0  0  0  0  0  0  0  0  0  0  0  0
    7.4719   -9.0403    0.0000 C   0  0  0  0  0  0  0  0  0  0  0  0
    6.4518   -7.9406    0.0000 O   0  0  0  0  0  0  0  0  0  0  0  0
    6.8942   -6.5073    0.0000 C   0  0  0  0  0  0  0  0  0  0  0  0
    5.8741   -5.4076    0.0000 C   0  0  0  0  0  0  0  0  0  0  0  0
    6.3164   -3.9743    0.0000 O   0  0  0  0  0  0  0  0  0  0  0  0
    5.2964   -2.8745    0.0000 C   0  0  0  0  0  0  0  0  0  0  0  0
    5.7387   -1.4413    0.0000 C   0  0  0  0  0  0  0  0  0  0  0  0
    4.7186   -0.3415    0.0000 C   0  0  0  0  0  0  0  0  0  0  0  0
    3.2562   -0.6751    0.0000 C   0  0  0  0  0  0  0  0  0  0  0  0
    2.8138   -2.1084    0.0000 N   0  0  0  0  0  0  0  0  0  0  0  0
    3.8339   -3.2081    0.0000 C   0  0  0  0  0  0  0  0  0  0  0  0
    3.3916   -4.6414    0.0000 C   0  0  0  0  0  0  0  0  0  0  0  0
    1.9291   -4.9749    0.0000 O   0  0  0  0  0  0  0  0  0  0  0  0
    4.4116   -5.7411    0.0000 O   0  0  0  0  0  0  0  0  0  0  0  0
    1.3514   -2.4419    0.0000 C   0  0  0  0  0  0  0  0  0  0  0  0
    0.9090   -3.8752    0.0000 O   0  0  0  0  0  0  0  0  0  0  0  0
    0.3313   -1.3422    0.0000 C   0  0  0  0  0  0  0  0  0  0  0  0
   -1.1311   -1.6757    0.0000 N   0  0  0  0  0  0  0  0  0  0  0  0
   -1.5735   -3.1090    0.0000 C   0  0  0  0  0  0  0  0  0  0  0  0
   -3.0359   -3.4426    0.0000 C   0  0  0  0  0  0  0  0  0  0  0  0
   -4.0560   -2.3428    0.0000 C   0  0  0  0  0  0  0  0  0  0  0  0
   -5.5185   -2.6764    0.0000 N   0  0  0  0  0  0  0  0  0  0  0  0
   -6.5386   -1.5767    0.0000 C   0  0  0  0  0  0  0  0  0  0  0  0
   -6.0962   -0.1434    0.0000 O   0  0  0  0  0  0  0  0  0  0  0  0
   -8.0010   -1.9102    0.0000 O   0  0  0  0  0  0  0  0  0  0  0  0
   -9.0211   -0.8105    0.0000 C   0  0  0  0  0  0  0  0  0  0  0  0
  -10.4835   -1.1440    0.0000 C   0  0  0  0  0  0  0  0  0  0  0  0
  -10.9259   -2.5773    0.0000 C   0  0  0  0  0  0  0  0  0  0  0  0
  -12.3883   -2.9109    0.0000 C   0  0  0  0  0  0  0  0  0  0  0  0
  -13.4084   -1.8111    0.0000 C   0  0  0  0  0  0  0  0  0  0  0  0
  -12.9661   -0.3778    0.0000 C   0  0  0  0  0  0  0  0  0  0  0  0
  -11.5036   -0.0443    0.0000 C   0  0  0  0  0  0  0  0  0  0  0  0
   -8.5787    0.6228    0.0000 C   0  0  0  0  0  0  0  0  0  0  0  0
   -9.5988    1.7226    0.0000 C   0  0  0  0  0  0  0  0  0  0  0  0
   -9.1565    3.1559    0.0000 C   0  0  0  0  0  0  0  0  0  0  0  0
   -7.6940    3.4894    0.0000 C   0  0  0  0  0  0  0  0  0  0  0  0
   -6.6739    2.3897    0.0000 C   0  0  0  0  0  0  0  0  0  0  0  0
   -7.1163    0.9564    0.0000 C   0  0  0  0  0  0  0  0  0  0  0  0
   -3.6137   -0.9095    0.0000 N   0  0  0  0  0  0  0  0  0  0  0  0
   -2.1512   -0.5760    0.0000 C   0  0  0  0  0  0  0  0  0  0  0  0
   -1.7089    0.8573    0.0000 O   0  0  0  0  0  0  0  0  0  0  0  0
    5.1610    1.0918    0.0000 N   0  0  0  0  0  0  0  0  0  0  0  0
    4.1409    2.1915    0.0000 C   0  0  0  0  0  0  0  0  0  0  0  0
    2.6785    1.8580    0.0000 O   0  0  0  0  0  0  0  0  0  0  0  0
    4.5833    3.6248    0.0000 O   0  0  0  0  0  0  0  0  0  0  0  0
    3.5632    4.7245    0.0000 C   0  0  0  0  0  0  0  0  0  0  0  0
    4.0055    6.1578    0.0000 C   0  0  0  0  0  0  0  0  0  0  0  0
    3.1060    7.3582    0.0000 C   0  0  0  0  0  0  0  0  0  0  0  0
    1.6120    7.4929    0.0000 C   0  0  0  0  0  0  0  0  0  0  0  0
    0.9817    8.8540    0.0000 C   0  0  0  0  0  0  0  0  0  0  0  0
    1.8453   10.0804    0.0000 C   0  0  0  0  0  0  0  0  0  0  0  0
    3.3393    9.9457    0.0000 C   0  0  0  0  0  0  0  0  0  0  0  0
    3.9696    8.5846    0.0000 C   0  0  0  0  0  0  0  0  0  0  0  0
    5.4029    8.1423    0.0000 C   0  0  0  0  0  0  0  0  0  0  0  0
    6.6907    8.9114    0.0000 C   0  0  0  0  0  0  0  0  0  0  0  0
    8.0007    8.1807    0.0000 C   0  0  0  0  0  0  0  0  0  0  0  0
    8.0229    6.6809    0.0000 C   0  0  0  0  0  0  0  0  0  0  0  0
    6.7351    5.9117    0.0000 C   0  0  0  0  0  0  0  0  0  0  0  0
    5.4251    6.6424    0.0000 C   0  0  0  0  0  0  0  0  0  0  0  0
  1  2  1  0
  2  3  1  0
  3  4  1  0
  4  5  1  0
  5  6  1  0
  6  7  1  0
  7  8  1  0
  8  9  1  0
  9 10  1  0
 11 10  1  1
 11 12  1  0
 12 13  1  0
 13 14  1  0
 14 15  1  0
 15 16  2  0
 15 17  1  0
 13 18  1  0
 18 19  2  0
 18 20  1  0
 20 21  1  0
 21 22  1  0
 22 23  2  0
 23 24  1  0
 24 25  1  0
 25 26  1  0
 26 27  2  0
 26 28  1  0
 28 29  1  0
 29 30  1  0
 30 31  2  0
 31 32  1  0
 32 33  2  0
 33 34  1  0
 34 35  2  0
 29 36  1  0
 36 37  2  0
 37 38  1  0
 38 39  2  0
 39 40  1  0
 40 41  2  0
 24 42  2  0
 42 43  1  0
 43 44  2  0
 11 45  1  0
 45 46  1  0
 46 47  2  0
 46 48  1  0
 48 49  1  0
 49 50  1  0
 50 51  1  0
 51 52  2  0
 52 53  1  0
 53 54  2  0
 54 55  1  0
 55 56  2  0
 56 57  1  0
 57 58  2  0
 58 59  1  0
 59 60  2  0
 60 61  1  0
 61 62  2  0
 43 21  1  0
 35 30  1  0
 41 36  1  0
 62 50  1  0
 56 51  1  0
 62 57  1  0
M  END
>  <ID>  (71) 
DST-MOD-001

>  <Name>  (71) 
Cpeg (Fmoc-γ-(mini-PEG)-C(Bhoc)-PNA-OH)

>  <Primary_Group>  (71) 
9. PEGylated, Cationic & Modified PNA Monomers (Analytical Table 2)

>  <Formula>  (71) 
C46H49N5O11

>  <Molecular_Weight>  (71) 
847.92

>  <Exact_Mass>  (71) 
847.3429

>  <IUPAC_Name>  (71) 
N-(2-(4-(((benzhydryloxy)carbonyl)amino)-2-oxopyrimidin-1(2H)-yl)acetyl)-N-((S)-2-((((9H-fluoren-9-yl)methoxy)carbonyl)amino)-4-(2-(2-methoxyethoxy)ethoxy)butyl)glycine

>  <SMILES>  (71) 
COCCOCCOCC[C@@H](CN(CC(=O)O)C(=O)Cn1ccc(NC(=O)OC(c2ccccc2)c3ccccc3)nc1=O)NC(=O)OCC4c5ccccc5-c6ccccc64

>  <Functional_Role>  (71) 
Solubilizing PEGylated cytosine PNA monomer preventing probe aggregation (RP-HPLC CBU-2 Tr = 6.073 min).

>  <Source_Document>  (71) 
Table 2 PS_Gamma Glu & PS_Gamma Ser

>  <InChI>  (71) 
InChI=1S/C46H49N5O11/c1-58-24-25-60-27-26-59-23-21-34(47-45(56)61-31-39-37-18-10-8-16-35(37)36-17-9-11-19-38(36)39)28-51(30-42(53)54)41(52)29-50-22-20-40(48-44(50)55)49-46(57)62-43(32-12-4-2-5-13-32)33-14-6-3-7-15-33/h2-20,22,34,39,43H,21,23-31H2,1H3,(H,47,56)(H,53,54)(H,48,49,55,57)/t34-/m0/s1

>  <InChIKey>  (71) 
RFHMGDIJANDJLE-UMSFTDKQSA-N

$$$$
Tpeg (Fmoc-γ-(mini-PEG)-T-PNA-OH)
     RDKit          2D

 47 50  0  0  0  0  0  0  0  0999 V2000
  -12.9639    4.3687    0.0000 C   0  0  0  0  0  0  0  0  0  0  0  0
  -11.5347    4.8241    0.0000 O   0  0  0  0  0  0  0  0  0  0  0  0
  -10.4257    3.8141    0.0000 C   0  0  0  0  0  0  0  0  0  0  0  0
   -8.9965    4.2695    0.0000 C   0  0  0  0  0  0  0  0  0  0  0  0
   -7.8875    3.2594    0.0000 O   0  0  0  0  0  0  0  0  0  0  0  0
   -6.4583    3.7148    0.0000 C   0  0  0  0  0  0  0  0  0  0  0  0
   -5.3493    2.7048    0.0000 C   0  0  0  0  0  0  0  0  0  0  0  0
   -3.9201    3.1602    0.0000 O   0  0  0  0  0  0  0  0  0  0  0  0
   -2.8111    2.1502    0.0000 C   0  0  0  0  0  0  0  0  0  0  0  0
   -1.3819    2.6055    0.0000 C   0  0  0  0  0  0  0  0  0  0  0  0
   -0.2729    1.5955    0.0000 C   0  0  0  0  0  0  0  0  0  0  0  0
   -0.5932    0.1301    0.0000 C   0  0  0  0  0  0  0  0  0  0  0  0
   -2.0224   -0.3253    0.0000 N   0  0  0  0  0  0  0  0  0  0  0  0
   -3.1313    0.6847    0.0000 C   0  0  0  0  0  0  0  0  0  0  0  0
   -4.5606    0.2293    0.0000 C   0  0  0  0  0  0  0  0  0  0  0  0
   -4.8808   -1.2361    0.0000 O   0  0  0  0  0  0  0  0  0  0  0  0
   -5.6695    1.2394    0.0000 O   0  0  0  0  0  0  0  0  0  0  0  0
   -2.3426   -1.7907    0.0000 C   0  0  0  0  0  0  0  0  0  0  0  0
   -3.7718   -2.2461    0.0000 O   0  0  0  0  0  0  0  0  0  0  0  0
   -1.2336   -2.8008    0.0000 C   0  0  0  0  0  0  0  0  0  0  0  0
   -1.5538   -4.2662    0.0000 N   0  0  0  0  0  0  0  0  0  0  0  0
   -2.9830   -4.7216    0.0000 C   0  0  0  0  0  0  0  0  0  0  0  0
   -3.3033   -6.1870    0.0000 C   0  0  0  0  0  0  0  0  0  0  0  0
   -4.7325   -6.6424    0.0000 C   0  0  0  0  0  0  0  0  0  0  0  0
   -2.1943   -7.1970    0.0000 C   0  0  0  0  0  0  0  0  0  0  0  0
   -2.5145   -8.6624    0.0000 O   0  0  0  0  0  0  0  0  0  0  0  0
   -0.7651   -6.7416    0.0000 N   0  0  0  0  0  0  0  0  0  0  0  0
   -0.4449   -5.2762    0.0000 C   0  0  0  0  0  0  0  0  0  0  0  0
    0.9843   -4.8208    0.0000 O   0  0  0  0  0  0  0  0  0  0  0  0
    1.1563    2.0509    0.0000 N   0  0  0  0  0  0  0  0  0  0  0  0
    2.2652    1.0409    0.0000 C   0  0  0  0  0  0  0  0  0  0  0  0
    1.9450   -0.4246    0.0000 O   0  0  0  0  0  0  0  0  0  0  0  0
    3.6944    1.4963    0.0000 O   0  0  0  0  0  0  0  0  0  0  0  0
    4.8034    0.4862    0.0000 C   0  0  0  0  0  0  0  0  0  0  0  0
    6.2326    0.9416    0.0000 C   0  0  0  0  0  0  0  0  0  0  0  0
    7.4411    0.0530    0.0000 C   0  0  0  0  0  0  0  0  0  0  0  0
    7.5894   -1.4396    0.0000 C   0  0  0  0  0  0  0  0  0  0  0  0
    8.9562   -2.0575    0.0000 C   0  0  0  0  0  0  0  0  0  0  0  0
   10.1747   -1.1828    0.0000 C   0  0  0  0  0  0  0  0  0  0  0  0
   10.0265    0.3099    0.0000 C   0  0  0  0  0  0  0  0  0  0  0  0
    8.6596    0.9278    0.0000 C   0  0  0  0  0  0  0  0  0  0  0  0
    8.2042    2.3570    0.0000 C   0  0  0  0  0  0  0  0  0  0  0  0
    8.9616    3.6517    0.0000 C   0  0  0  0  0  0  0  0  0  0  0  0
    8.2191    4.9550    0.0000 C   0  0  0  0  0  0  0  0  0  0  0  0
    6.7191    4.9636    0.0000 C   0  0  0  0  0  0  0  0  0  0  0  0
    5.9617    3.6688    0.0000 C   0  0  0  0  0  0  0  0  0  0  0  0
    6.7043    2.3655    0.0000 C   0  0  0  0  0  0  0  0  0  0  0  0
  1  2  1  0
  2  3  1  0
  3  4  1  0
  4  5  1  0
  5  6  1  0
  6  7  1  0
  7  8  1  0
  8  9  1  0
  9 10  1  0
 11 10  1  6
 11 12  1  0
 12 13  1  0
 13 14  1  0
 14 15  1  0
 15 16  2  0
 15 17  1  0
 13 18  1  0
 18 19  2  0
 18 20  1  0
 20 21  1  0
 21 22  1  0
 22 23  2  0
 23 24  1  0
 23 25  1  0
 25 26  2  0
 25 27  1  0
 27 28  1  0
 28 29  2  0
 11 30  1  0
 30 31  1  0
 31 32  2  0
 31 33  1  0
 33 34  1  0
 34 35  1  0
 35 36  1  0
 36 37  2  0
 37 38  1  0
 38 39  2  0
 39 40  1  0
 40 41  2  0
 41 42  1  0
 42 43  2  0
 43 44  1  0
 44 45  2  0
 45 46  1  0
 46 47  2  0
 28 21  1  0
 47 35  1  0
 41 36  1  0
 47 42  1  0
M  END
>  <ID>  (72) 
DST-MOD-002

>  <Name>  (72) 
Tpeg (Fmoc-γ-(mini-PEG)-T-PNA-OH)

>  <Primary_Group>  (72) 
9. PEGylated, Cationic & Modified PNA Monomers (Analytical Table 2)

>  <Formula>  (72) 
C33H40N4O10

>  <Molecular_Weight>  (72) 
652.7

>  <Exact_Mass>  (72) 
652.2744

>  <IUPAC_Name>  (72) 
N-((S)-2-((((9H-fluoren-9-yl)methoxy)carbonyl)amino)-4-(2-(2-methoxyethoxy)ethoxy)butyl)-N-(2-(5-methyl-2,4-dioxo-3,4-dihydropyrimidin-1(2H)-yl)acetyl)glycine

>  <SMILES>  (72) 
COCCOCCOCC[C@@H](CN(CC(=O)O)C(=O)Cn1cc(C)c(=O)[nH]c1=O)NC(=O)OCC2c3ccccc3-c4ccccc42

>  <Functional_Role>  (72) 
Solubilizing PEGylated thymine PNA monomer (RP-HPLC CBU-2 Tr = 5.223 min).

>  <Source_Document>  (72) 
Table 2 PS_Gamma Glu & PS_Gamma Ser

>  <InChI>  (72) 
InChI=1S/C33H40N4O10/c1-22-17-37(32(42)35-31(22)41)19-29(38)36(20-30(39)40)18-23(11-12-45-15-16-46-14-13-44-2)34-33(43)47-21-28-26-9-5-3-7-24(26)25-8-4-6-10-27(25)28/h3-10,17,23,28H,11-16,18-21H2,1-2H3,(H,34,43)(H,39,40)(H,35,41,42)/t23-/m0/s1

>  <InChIKey>  (72) 
AIURQVFCJRFBFT-QHCPKHFHSA-N

$$$$
Clys (Fmoc-γ-L-Lys(Boc)-C(Bhoc)-PNA-OH)
     RDKit          2D

 64 69  0  0  0  0  0  0  0  0999 V2000
   -9.3483   -9.7568    0.0000 C   0  0  0  0  0  0  0  0  0  0  0  0
   -7.8774   -9.4626    0.0000 C   0  0  0  0  0  0  0  0  0  0  0  0
   -6.4066   -9.1684    0.0000 C   0  0  0  0  0  0  0  0  0  0  0  0
   -7.5832  -10.9334    0.0000 C   0  0  0  0  0  0  0  0  0  0  0  0
   -8.1716   -7.9917    0.0000 O   0  0  0  0  0  0  0  0  0  0  0  0
   -7.0449   -7.0015    0.0000 C   0  0  0  0  0  0  0  0  0  0  0  0
   -5.6240   -7.4821    0.0000 O   0  0  0  0  0  0  0  0  0  0  0  0
   -7.3392   -5.5306    0.0000 N   0  0  0  0  0  0  0  0  0  0  0  0
   -6.2124   -4.5404    0.0000 C   0  0  0  0  0  0  0  0  0  0  0  0
   -6.5067   -3.0695    0.0000 C   0  0  0  0  0  0  0  0  0  0  0  0
   -5.3800   -2.0793    0.0000 C   0  0  0  0  0  0  0  0  0  0  0  0
   -5.6742   -0.6084    0.0000 C   0  0  0  0  0  0  0  0  0  0  0  0
   -4.5475    0.3818    0.0000 C   0  0  0  0  0  0  0  0  0  0  0  0
   -3.1266   -0.0989    0.0000 C   0  0  0  0  0  0  0  0  0  0  0  0
   -2.8323   -1.5697    0.0000 N   0  0  0  0  0  0  0  0  0  0  0  0
   -3.9590   -2.5599    0.0000 C   0  0  0  0  0  0  0  0  0  0  0  0
   -3.6648   -4.0308    0.0000 C   0  0  0  0  0  0  0  0  0  0  0  0
   -2.2439   -4.5115    0.0000 O   0  0  0  0  0  0  0  0  0  0  0  0
   -4.7915   -5.0210    0.0000 O   0  0  0  0  0  0  0  0  0  0  0  0
   -1.4114   -2.0504    0.0000 C   0  0  0  0  0  0  0  0  0  0  0  0
   -1.1172   -3.5212    0.0000 O   0  0  0  0  0  0  0  0  0  0  0  0
   -0.2847   -1.0601    0.0000 C   0  0  0  0  0  0  0  0  0  0  0  0
    1.1362   -1.5408    0.0000 N   0  0  0  0  0  0  0  0  0  0  0  0
    1.4304   -3.0116    0.0000 C   0  0  0  0  0  0  0  0  0  0  0  0
    2.8513   -3.4923    0.0000 C   0  0  0  0  0  0  0  0  0  0  0  0
    3.9780   -2.5021    0.0000 C   0  0  0  0  0  0  0  0  0  0  0  0
    5.3989   -2.9827    0.0000 N   0  0  0  0  0  0  0  0  0  0  0  0
    6.5256   -1.9925    0.0000 C   0  0  0  0  0  0  0  0  0  0  0  0
    6.2314   -0.5216    0.0000 O   0  0  0  0  0  0  0  0  0  0  0  0
    7.9465   -2.4731    0.0000 O   0  0  0  0  0  0  0  0  0  0  0  0
    9.0732   -1.4829    0.0000 C   0  0  0  0  0  0  0  0  0  0  0  0
   10.4941   -1.9635    0.0000 C   0  0  0  0  0  0  0  0  0  0  0  0
   10.7883   -3.4344    0.0000 C   0  0  0  0  0  0  0  0  0  0  0  0
   12.2092   -3.9150    0.0000 C   0  0  0  0  0  0  0  0  0  0  0  0
   13.3359   -2.9248    0.0000 C   0  0  0  0  0  0  0  0  0  0  0  0
   13.0417   -1.4539    0.0000 C   0  0  0  0  0  0  0  0  0  0  0  0
   11.6208   -0.9733    0.0000 C   0  0  0  0  0  0  0  0  0  0  0  0
    8.7790   -0.0120    0.0000 C   0  0  0  0  0  0  0  0  0  0  0  0
    9.9057    0.9782    0.0000 C   0  0  0  0  0  0  0  0  0  0  0  0
    9.6115    2.4491    0.0000 C   0  0  0  0  0  0  0  0  0  0  0  0
    8.1906    2.9297    0.0000 C   0  0  0  0  0  0  0  0  0  0  0  0
    7.0639    1.9395    0.0000 C   0  0  0  0  0  0  0  0  0  0  0  0
    7.3581    0.4686    0.0000 C   0  0  0  0  0  0  0  0  0  0  0  0
    3.6838   -1.0312    0.0000 N   0  0  0  0  0  0  0  0  0  0  0  0
    2.2629   -0.5506    0.0000 C   0  0  0  0  0  0  0  0  0  0  0  0
    1.9687    0.9203    0.0000 O   0  0  0  0  0  0  0  0  0  0  0  0
   -4.8417    1.8526    0.0000 N   0  0  0  0  0  0  0  0  0  0  0  0
   -3.7150    2.8429    0.0000 C   0  0  0  0  0  0  0  0  0  0  0  0
   -2.2941    2.3622    0.0000 O   0  0  0  0  0  0  0  0  0  0  0  0
   -4.0092    4.3137    0.0000 O   0  0  0  0  0  0  0  0  0  0  0  0
   -2.8825    5.3040    0.0000 C   0  0  0  0  0  0  0  0  0  0  0  0
   -3.1767    6.7748    0.0000 C   0  0  0  0  0  0  0  0  0  0  0  0
   -2.1597    7.8774    0.0000 C   0  0  0  0  0  0  0  0  0  0  0  0
   -0.6598    7.8594    0.0000 C   0  0  0  0  0  0  0  0  0  0  0  0
    0.1058    9.1493    0.0000 C   0  0  0  0  0  0  0  0  0  0  0  0
   -0.6285   10.4573    0.0000 C   0  0  0  0  0  0  0  0  0  0  0  0
   -2.1284   10.4753    0.0000 C   0  0  0  0  0  0  0  0  0  0  0  0
   -2.8940    9.1854    0.0000 C   0  0  0  0  0  0  0  0  0  0  0  0
   -4.3649    8.8911    0.0000 C   0  0  0  0  0  0  0  0  0  0  0  0
   -5.5677    9.7873    0.0000 C   0  0  0  0  0  0  0  0  0  0  0  0
   -6.9453    9.1938    0.0000 C   0  0  0  0  0  0  0  0  0  0  0  0
   -7.1200    7.7040    0.0000 C   0  0  0  0  0  0  0  0  0  0  0  0
   -5.9171    6.8078    0.0000 C   0  0  0  0  0  0  0  0  0  0  0  0
   -4.5396    7.4014    0.0000 C   0  0  0  0  0  0  0  0  0  0  0  0
  1  2  1  0
  2  3  1  0
  2  4  1  0
  2  5  1  0
  5  6  1  0
  6  7  2  0
  6  8  1  0
  8  9  1  0
  9 10  1  0
 10 11  1  0
 11 12  1  0
 13 12  1  6
 13 14  1  0
 14 15  1  0
 15 16  1  0
 16 17  1  0
 17 18  2  0
 17 19  1  0
 15 20  1  0
 20 21  2  0
 20 22  1  0
 22 23  1  0
 23 24  1  0
 24 25  2  0
 25 26  1  0
 26 27  1  0
 27 28  1  0
 28 29  2  0
 28 30  1  0
 30 31  1  0
 31 32  1  0
 32 33  2  0
 33 34  1  0
 34 35  2  0
 35 36  1  0
 36 37  2  0
 31 38  1  0
 38 39  2  0
 39 40  1  0
 40 41  2  0
 41 42  1  0
 42 43  2  0
 26 44  2  0
 44 45  1  0
 45 46  2  0
 13 47  1  0
 47 48  1  0
 48 49  2  0
 48 50  1  0
 50 51  1  0
 51 52  1  0
 52 53  1  0
 53 54  2  0
 54 55  1  0
 55 56  2  0
 56 57  1  0
 57 58  2  0
 58 59  1  0
 59 60  2  0
 60 61  1  0
 61 62  2  0
 62 63  1  0
 63 64  2  0
 45 23  1  0
 37 32  1  0
 43 38  1  0
 64 52  1  0
 58 53  1  0
 64 59  1  0
M  END
>  <ID>  (73) 
DST-MOD-003

>  <Name>  (73) 
Clys (Fmoc-γ-L-Lys(Boc)-C(Bhoc)-PNA-OH)

>  <Primary_Group>  (73) 
9. PEGylated, Cationic & Modified PNA Monomers (Analytical Table 2)

>  <Formula>  (73) 
C48H52N6O10

>  <Molecular_Weight>  (73) 
872.98

>  <Exact_Mass>  (73) 
872.3745

>  <IUPAC_Name>  (73) 
N-(2-(4-(((benzhydryloxy)carbonyl)amino)-2-oxopyrimidin-1(2H)-yl)acetyl)-N-((S)-2-((((9H-fluoren-9-yl)methoxy)carbonyl)amino)-6-((tert-butoxycarbonyl)amino)hexyl)glycine

>  <SMILES>  (73) 
CC(C)(C)OC(=O)NCCCC[C@@H](CN(CC(=O)O)C(=O)Cn1ccc(NC(=O)OC(c2ccccc2)c3ccccc3)nc1=O)NC(=O)OCC4c5ccccc5-c6ccccc64

>  <Functional_Role>  (73) 
Cationic lysine-modified cytosine PNA monomer conferring positive charge post-cleavage (RP-HPLC CBU-2 Tr = 6.389 min).

>  <Source_Document>  (73) 
Table 2 PS_Gamma Glu & PS_Gamma Ser

>  <InChI>  (73) 
InChI=1S/C48H52N6O10/c1-48(2,3)64-45(59)49-26-15-14-20-34(50-46(60)62-31-39-37-23-12-10-21-35(37)36-22-11-13-24-38(36)39)28-54(30-42(56)57)41(55)29-53-27-25-40(51-44(53)58)52-47(61)63-43(32-16-6-4-7-17-32)33-18-8-5-9-19-33/h4-13,16-19,21-25,27,34,39,43H,14-15,20,26,28-31H2,1-3H3,(H,49,59)(H,50,60)(H,56,57)(H,51,52,58,61)/t34-/m0/s1

>  <InChIKey>  (73) 
LIHYTYYPJXOLQT-UMSFTDKQSA-N

$$$$
Tlys (Fmoc-γ-L-Lys(Boc)-T-PNA-OH)
     RDKit          2D

 49 52  0  0  0  0  0  0  0  0999 V2000
  -10.6364    4.9816    0.0000 C   0  0  0  0  0  0  0  0  0  0  0  0
  -10.1556    3.5607    0.0000 C   0  0  0  0  0  0  0  0  0  0  0  0
   -9.6749    2.1398    0.0000 C   0  0  0  0  0  0  0  0  0  0  0  0
  -11.5765    3.0800    0.0000 C   0  0  0  0  0  0  0  0  0  0  0  0
   -8.7348    4.0415    0.0000 O   0  0  0  0  0  0  0  0  0  0  0  0
   -7.6080    3.0513    0.0000 C   0  0  0  0  0  0  0  0  0  0  0  0
   -7.9021    1.5804    0.0000 O   0  0  0  0  0  0  0  0  0  0  0  0
   -6.1871    3.5321    0.0000 N   0  0  0  0  0  0  0  0  0  0  0  0
   -5.0603    2.5419    0.0000 C   0  0  0  0  0  0  0  0  0  0  0  0
   -3.6395    3.0227    0.0000 C   0  0  0  0  0  0  0  0  0  0  0  0
   -2.5127    2.0325    0.0000 C   0  0  0  0  0  0  0  0  0  0  0  0
   -1.0918    2.5133    0.0000 C   0  0  0  0  0  0  0  0  0  0  0  0
    0.0350    1.5231    0.0000 C   0  0  0  0  0  0  0  0  0  0  0  0
   -0.2591    0.0523    0.0000 C   0  0  0  0  0  0  0  0  0  0  0  0
   -1.6800   -0.4285    0.0000 N   0  0  0  0  0  0  0  0  0  0  0  0
   -2.8068    0.5617    0.0000 C   0  0  0  0  0  0  0  0  0  0  0  0
   -4.2277    0.0809    0.0000 C   0  0  0  0  0  0  0  0  0  0  0  0
   -4.5217   -1.3900    0.0000 O   0  0  0  0  0  0  0  0  0  0  0  0
   -5.3544    1.0710    0.0000 O   0  0  0  0  0  0  0  0  0  0  0  0
   -1.9741   -1.8994    0.0000 C   0  0  0  0  0  0  0  0  0  0  0  0
   -3.3950   -2.3801    0.0000 O   0  0  0  0  0  0  0  0  0  0  0  0
   -0.8473   -2.8895    0.0000 C   0  0  0  0  0  0  0  0  0  0  0  0
   -1.1414   -4.3604    0.0000 N   0  0  0  0  0  0  0  0  0  0  0  0
   -2.5623   -4.8411    0.0000 C   0  0  0  0  0  0  0  0  0  0  0  0
   -2.8564   -6.3120    0.0000 C   0  0  0  0  0  0  0  0  0  0  0  0
   -4.2773   -6.7928    0.0000 C   0  0  0  0  0  0  0  0  0  0  0  0
   -1.7296   -7.3022    0.0000 C   0  0  0  0  0  0  0  0  0  0  0  0
   -2.0237   -8.7731    0.0000 O   0  0  0  0  0  0  0  0  0  0  0  0
   -0.3087   -6.8214    0.0000 N   0  0  0  0  0  0  0  0  0  0  0  0
   -0.0146   -5.3505    0.0000 C   0  0  0  0  0  0  0  0  0  0  0  0
    1.4062   -4.8698    0.0000 O   0  0  0  0  0  0  0  0  0  0  0  0
    1.4558    2.0039    0.0000 N   0  0  0  0  0  0  0  0  0  0  0  0
    2.5826    1.0138    0.0000 C   0  0  0  0  0  0  0  0  0  0  0  0
    2.2885   -0.4571    0.0000 O   0  0  0  0  0  0  0  0  0  0  0  0
    4.0035    1.4945    0.0000 O   0  0  0  0  0  0  0  0  0  0  0  0
    5.1303    0.5044    0.0000 C   0  0  0  0  0  0  0  0  0  0  0  0
    6.5511    0.9851    0.0000 C   0  0  0  0  0  0  0  0  0  0  0  0
    7.7752    0.1182    0.0000 C   0  0  0  0  0  0  0  0  0  0  0  0
    7.9501   -1.3716    0.0000 C   0  0  0  0  0  0  0  0  0  0  0  0
    9.3277   -1.9651    0.0000 C   0  0  0  0  0  0  0  0  0  0  0  0
   10.5304   -1.0688    0.0000 C   0  0  0  0  0  0  0  0  0  0  0  0
   10.3556    0.4210    0.0000 C   0  0  0  0  0  0  0  0  0  0  0  0
    8.9780    1.0145    0.0000 C   0  0  0  0  0  0  0  0  0  0  0  0
    8.4973    2.4353    0.0000 C   0  0  0  0  0  0  0  0  0  0  0  0
    9.2315    3.7434    0.0000 C   0  0  0  0  0  0  0  0  0  0  0  0
    8.4658    5.0332    0.0000 C   0  0  0  0  0  0  0  0  0  0  0  0
    6.9660    5.0151    0.0000 C   0  0  0  0  0  0  0  0  0  0  0  0
    6.2317    3.7071    0.0000 C   0  0  0  0  0  0  0  0  0  0  0  0
    6.9974    2.4172    0.0000 C   0  0  0  0  0  0  0  0  0  0  0  0
  1  2  1  0
  2  3  1  0
  2  4  1  0
  2  5  1  0
  5  6  1  0
  6  7  2  0
  6  8  1  0
  8  9  1  0
  9 10  1  0
 10 11  1  0
 11 12  1  0
 13 12  1  6
 13 14  1  0
 14 15  1  0
 15 16  1  0
 16 17  1  0
 17 18  2  0
 17 19  1  0
 15 20  1  0
 20 21  2  0
 20 22  1  0
 22 23  1  0
 23 24  1  0
 24 25  2  0
 25 26  1  0
 25 27  1  0
 27 28  2  0
 27 29  1  0
 29 30  1  0
 30 31  2  0
 13 32  1  0
 32 33  1  0
 33 34  2  0
 33 35  1  0
 35 36  1  0
 36 37  1  0
 37 38  1  0
 38 39  2  0
 39 40  1  0
 40 41  2  0
 41 42  1  0
 42 43  2  0
 43 44  1  0
 44 45  2  0
 45 46  1  0
 46 47  2  0
 47 48  1  0
 48 49  2  0
 30 23  1  0
 49 37  1  0
 43 38  1  0
 49 44  1  0
M  END
>  <ID>  (74) 
DST-MOD-004

>  <Name>  (74) 
Tlys (Fmoc-γ-L-Lys(Boc)-T-PNA-OH)

>  <Primary_Group>  (74) 
9. PEGylated, Cationic & Modified PNA Monomers (Analytical Table 2)

>  <Formula>  (74) 
C35H43N5O9

>  <Molecular_Weight>  (74) 
677.76

>  <Exact_Mass>  (74) 
677.3061

>  <IUPAC_Name>  (74) 
N-((S)-2-((((9H-fluoren-9-yl)methoxy)carbonyl)amino)-6-((tert-butoxycarbonyl)amino)hexyl)-N-(2-(5-methyl-2,4-dioxo-3,4-dihydropyrimidin-1(2H)-yl)acetyl)glycine

>  <SMILES>  (74) 
CC(C)(C)OC(=O)NCCCC[C@@H](CN(CC(=O)O)C(=O)Cn1cc(C)c(=O)[nH]c1=O)NC(=O)OCC2c3ccccc3-c4ccccc42

>  <Functional_Role>  (74) 
Cationic lysine-modified thymine PNA monomer conferring positive charge (RP-HPLC CBU-2 Tr = 5.627 min).

>  <Source_Document>  (74) 
Table 2 PS_Gamma Glu & PS_Gamma Ser

>  <InChI>  (74) 
InChI=1S/C35H43N5O9/c1-22-17-40(32(45)38-31(22)44)19-29(41)39(20-30(42)43)18-23(11-9-10-16-36-33(46)49-35(2,3)4)37-34(47)48-21-28-26-14-7-5-12-24(26)25-13-6-8-15-27(25)28/h5-8,12-15,17,23,28H,9-11,16,18-21H2,1-4H3,(H,36,46)(H,37,47)(H,42,43)(H,38,44,45)/t23-/m0/s1

>  <InChIKey>  (74) 
LFPAFFIWPKPFCP-QHCPKHFHSA-N

$$$$
Blank Monomer - *L-DAPA* (Fmoc-γ-L-DAPA(Boc)-Blank-PNA-COOH)
     RDKit          2D

 41 43  0  0  0  0  0  0  0  0999 V2000
   -8.0728    2.1461    0.0000 C   0  0  0  0  0  0  0  0  0  0  0  0
   -7.0120    3.2066    0.0000 C   0  0  0  0  0  0  0  0  0  0  0  0
   -5.9511    4.2670    0.0000 C   0  0  0  0  0  0  0  0  0  0  0  0
   -8.0724    4.2674    0.0000 C   0  0  0  0  0  0  0  0  0  0  0  0
   -5.9515    2.1457    0.0000 O   0  0  0  0  0  0  0  0  0  0  0  0
   -4.5026    2.5337    0.0000 C   0  0  0  0  0  0  0  0  0  0  0  0
   -4.1140    3.9825    0.0000 O   0  0  0  0  0  0  0  0  0  0  0  0
   -3.4421    1.4728    0.0000 N   0  0  0  0  0  0  0  0  0  0  0  0
   -1.9931    1.8607    0.0000 C   0  0  0  0  0  0  0  0  0  0  0  0
   -0.9327    0.7999    0.0000 C   0  0  0  0  0  0  0  0  0  0  0  0
   -1.3212   -0.6489    0.0000 C   0  0  0  0  0  0  0  0  0  0  0  0
   -2.7701   -1.0369    0.0000 N   0  0  0  0  0  0  0  0  0  0  0  0
   -3.8306    0.0240    0.0000 C   0  0  0  0  0  0  0  0  0  0  0  0
   -5.2796   -0.3640    0.0000 C   0  0  0  0  0  0  0  0  0  0  0  0
   -5.6681   -1.8128    0.0000 O   0  0  0  0  0  0  0  0  0  0  0  0
   -6.3400    0.6969    0.0000 O   0  0  0  0  0  0  0  0  0  0  0  0
   -3.1587   -2.4857    0.0000 C   0  0  0  0  0  0  0  0  0  0  0  0
   -2.0982   -3.5466    0.0000 O   0  0  0  0  0  0  0  0  0  0  0  0
   -4.6076   -2.8737    0.0000 O   0  0  0  0  0  0  0  0  0  0  0  0
   -4.9961   -4.3225    0.0000 C   0  0  0  0  0  0  0  0  0  0  0  0
   -6.4449   -3.9340    0.0000 C   0  0  0  0  0  0  0  0  0  0  0  0
   -3.5473   -4.7110    0.0000 C   0  0  0  0  0  0  0  0  0  0  0  0
   -5.3846   -5.7713    0.0000 C   0  0  0  0  0  0  0  0  0  0  0  0
    0.5163    1.1878    0.0000 N   0  0  0  0  0  0  0  0  0  0  0  0
    1.5767    0.1270    0.0000 C   0  0  0  0  0  0  0  0  0  0  0  0
    1.1882   -1.3218    0.0000 O   0  0  0  0  0  0  0  0  0  0  0  0
    3.0257    0.5149    0.0000 O   0  0  0  0  0  0  0  0  0  0  0  0
    4.0862   -0.5459    0.0000 C   0  0  0  0  0  0  0  0  0  0  0  0
    5.5351   -0.1580    0.0000 C   0  0  0  0  0  0  0  0  0  0  0  0
    6.7007   -1.1022    0.0000 C   0  0  0  0  0  0  0  0  0  0  0  0
    6.7789   -2.6002    0.0000 C   0  0  0  0  0  0  0  0  0  0  0  0
    8.1153   -3.2814    0.0000 C   0  0  0  0  0  0  0  0  0  0  0  0
    9.3734   -2.4647    0.0000 C   0  0  0  0  0  0  0  0  0  0  0  0
    9.2952   -0.9667    0.0000 C   0  0  0  0  0  0  0  0  0  0  0  0
    7.9588   -0.2855    0.0000 C   0  0  0  0  0  0  0  0  0  0  0  0
    7.5709    1.1635    0.0000 C   0  0  0  0  0  0  0  0  0  0  0  0
    8.3881    2.4213    0.0000 C   0  0  0  0  0  0  0  0  0  0  0  0
    7.7073    3.7580    0.0000 C   0  0  0  0  0  0  0  0  0  0  0  0
    6.2094    3.8368    0.0000 C   0  0  0  0  0  0  0  0  0  0  0  0
    5.3922    2.5789    0.0000 C   0  0  0  0  0  0  0  0  0  0  0  0
    6.0729    1.2423    0.0000 C   0  0  0  0  0  0  0  0  0  0  0  0
  1  2  1  0
  2  3  1  0
  2  4  1  0
  2  5  1  0
  5  6  1  0
  6  7  2  0
  6  8  1  0
  8  9  1  0
 10  9  1  6
 10 11  1  0
 11 12  1  0
 12 13  1  0
 13 14  1  0
 14 15  2  0
 14 16  1  0
 12 17  1  0
 17 18  2  0
 17 19  1  0
 19 20  1  0
 20 21  1  0
 20 22  1  0
 20 23  1  0
 10 24  1  0
 24 25  1  0
 25 26  2  0
 25 27  1  0
 27 28  1  0
 28 29  1  0
 29 30  1  0
 30 31  2  0
 31 32  1  0
 32 33  2  0
 33 34  1  0
 34 35  2  0
 35 36  1  0
 36 37  2  0
 37 38  1  0
 38 39  2  0
 39 40  1  0
 40 41  2  0
 41 29  1  0
 35 30  1  0
 41 36  1  0
M  END
>  <ID>  (75) 
DST-MOD-005

>  <Name>  (75) 
Blank Monomer - *L-DAPA* (Fmoc-γ-L-DAPA(Boc)-Blank-PNA-COOH)

>  <Primary_Group>  (75) 
9. PEGylated, Cationic & Modified PNA Monomers (Analytical Table 2)

>  <Formula>  (75) 
C30H39N3O8

>  <Molecular_Weight>  (75) 
569.66

>  <Exact_Mass>  (75) 
569.2737

>  <IUPAC_Name>  (75) 
N-((S)-2-((((9H-fluoren-9-yl)methoxy)carbonyl)amino)-3-((tert-butoxycarbonyl)amino)propyl)-N-(tert-butoxycarbonyl)glycine

>  <SMILES>  (75) 
CC(C)(C)OC(=O)NC[C@@H](CN(CC(=O)O)C(=O)OC(C)(C)C)NC(=O)OCC1c2ccccc2-c3ccccc31

>  <Functional_Role>  (75) 
Chiral (S)-L-diaminopropionic acid abasic monomer for amine functionalization (RP-HPLC CBU-2 Tr = 6.232 min).

>  <Source_Document>  (75) 
Table 2 PS_Gamma Glu & PS_Gamma Ser

>  <InChI>  (75) 
InChI=1S/C30H39N3O8/c1-29(2,3)40-26(36)31-15-19(16-33(17-25(34)35)28(38)41-30(4,5)6)32-27(37)39-18-24-22-13-9-7-11-20(22)21-12-8-10-14-23(21)24/h7-14,19,24H,15-18H2,1-6H3,(H,31,36)(H,32,37)(H,34,35)/t19-/m0/s1

>  <InChIKey>  (75) 
BYSTVELUWMTUHM-IBGZPJMESA-N

$$$$
Blank Monomer - *D-DAPA* (Fmoc-γ-D-DAPA(Boc)-Blank-PNA-COOH)
     RDKit          2D

 41 43  0  0  0  0  0  0  0  0999 V2000
   -8.0728    2.1461    0.0000 C   0  0  0  0  0  0  0  0  0  0  0  0
   -7.0120    3.2066    0.0000 C   0  0  0  0  0  0  0  0  0  0  0  0
   -5.9511    4.2670    0.0000 C   0  0  0  0  0  0  0  0  0  0  0  0
   -8.0724    4.2674    0.0000 C   0  0  0  0  0  0  0  0  0  0  0  0
   -5.9515    2.1457    0.0000 O   0  0  0  0  0  0  0  0  0  0  0  0
   -4.5026    2.5337    0.0000 C   0  0  0  0  0  0  0  0  0  0  0  0
   -4.1140    3.9825    0.0000 O   0  0  0  0  0  0  0  0  0  0  0  0
   -3.4421    1.4728    0.0000 N   0  0  0  0  0  0  0  0  0  0  0  0
   -1.9931    1.8607    0.0000 C   0  0  0  0  0  0  0  0  0  0  0  0
   -0.9327    0.7999    0.0000 C   0  0  0  0  0  0  0  0  0  0  0  0
   -1.3212   -0.6489    0.0000 C   0  0  0  0  0  0  0  0  0  0  0  0
   -2.7701   -1.0369    0.0000 N   0  0  0  0  0  0  0  0  0  0  0  0
   -3.8306    0.0240    0.0000 C   0  0  0  0  0  0  0  0  0  0  0  0
   -5.2796   -0.3640    0.0000 C   0  0  0  0  0  0  0  0  0  0  0  0
   -5.6681   -1.8128    0.0000 O   0  0  0  0  0  0  0  0  0  0  0  0
   -6.3400    0.6969    0.0000 O   0  0  0  0  0  0  0  0  0  0  0  0
   -3.1587   -2.4857    0.0000 C   0  0  0  0  0  0  0  0  0  0  0  0
   -2.0982   -3.5466    0.0000 O   0  0  0  0  0  0  0  0  0  0  0  0
   -4.6076   -2.8737    0.0000 O   0  0  0  0  0  0  0  0  0  0  0  0
   -4.9961   -4.3225    0.0000 C   0  0  0  0  0  0  0  0  0  0  0  0
   -6.4449   -3.9340    0.0000 C   0  0  0  0  0  0  0  0  0  0  0  0
   -3.5473   -4.7110    0.0000 C   0  0  0  0  0  0  0  0  0  0  0  0
   -5.3846   -5.7713    0.0000 C   0  0  0  0  0  0  0  0  0  0  0  0
    0.5163    1.1878    0.0000 N   0  0  0  0  0  0  0  0  0  0  0  0
    1.5767    0.1270    0.0000 C   0  0  0  0  0  0  0  0  0  0  0  0
    1.1882   -1.3218    0.0000 O   0  0  0  0  0  0  0  0  0  0  0  0
    3.0257    0.5149    0.0000 O   0  0  0  0  0  0  0  0  0  0  0  0
    4.0862   -0.5459    0.0000 C   0  0  0  0  0  0  0  0  0  0  0  0
    5.5351   -0.1580    0.0000 C   0  0  0  0  0  0  0  0  0  0  0  0
    6.7007   -1.1022    0.0000 C   0  0  0  0  0  0  0  0  0  0  0  0
    6.7789   -2.6002    0.0000 C   0  0  0  0  0  0  0  0  0  0  0  0
    8.1153   -3.2814    0.0000 C   0  0  0  0  0  0  0  0  0  0  0  0
    9.3734   -2.4647    0.0000 C   0  0  0  0  0  0  0  0  0  0  0  0
    9.2952   -0.9667    0.0000 C   0  0  0  0  0  0  0  0  0  0  0  0
    7.9588   -0.2855    0.0000 C   0  0  0  0  0  0  0  0  0  0  0  0
    7.5709    1.1635    0.0000 C   0  0  0  0  0  0  0  0  0  0  0  0
    8.3881    2.4213    0.0000 C   0  0  0  0  0  0  0  0  0  0  0  0
    7.7073    3.7580    0.0000 C   0  0  0  0  0  0  0  0  0  0  0  0
    6.2094    3.8368    0.0000 C   0  0  0  0  0  0  0  0  0  0  0  0
    5.3922    2.5789    0.0000 C   0  0  0  0  0  0  0  0  0  0  0  0
    6.0729    1.2423    0.0000 C   0  0  0  0  0  0  0  0  0  0  0  0
  1  2  1  0
  2  3  1  0
  2  4  1  0
  2  5  1  0
  5  6  1  0
  6  7  2  0
  6  8  1  0
  8  9  1  0
 10  9  1  1
 10 11  1  0
 11 12  1  0
 12 13  1  0
 13 14  1  0
 14 15  2  0
 14 16  1  0
 12 17  1  0
 17 18  2  0
 17 19  1  0
 19 20  1  0
 20 21  1  0
 20 22  1  0
 20 23  1  0
 10 24  1  0
 24 25  1  0
 25 26  2  0
 25 27  1  0
 27 28  1  0
 28 29  1  0
 29 30  1  0
 30 31  2  0
 31 32  1  0
 32 33  2  0
 33 34  1  0
 34 35  2  0
 35 36  1  0
 36 37  2  0
 37 38  1  0
 38 39  2  0
 39 40  1  0
 40 41  2  0
 41 29  1  0
 35 30  1  0
 41 36  1  0
M  END
>  <ID>  (76) 
DST-MOD-006

>  <Name>  (76) 
Blank Monomer - *D-DAPA* (Fmoc-γ-D-DAPA(Boc)-Blank-PNA-COOH)

>  <Primary_Group>  (76) 
9. PEGylated, Cationic & Modified PNA Monomers (Analytical Table 2)

>  <Formula>  (76) 
C30H39N3O8

>  <Molecular_Weight>  (76) 
569.66

>  <Exact_Mass>  (76) 
569.2737

>  <IUPAC_Name>  (76) 
N-((R)-2-((((9H-fluoren-9-yl)methoxy)carbonyl)amino)-3-((tert-butoxycarbonyl)amino)propyl)-N-(tert-butoxycarbonyl)glycine

>  <SMILES>  (76) 
CC(C)(C)OC(=O)NC[C@H](CN(CC(=O)O)C(=O)OC(C)(C)C)NC(=O)OCC1c2ccccc2-c3ccccc31

>  <Functional_Role>  (76) 
Chiral (R)-D-diaminopropionic acid abasic monomer (RP-HPLC CBU-2 Tr = 6.232 min).

>  <Source_Document>  (76) 
Table 2 PS_Gamma Glu & PS_Gamma Ser

>  <InChI>  (76) 
InChI=1S/C30H39N3O8/c1-29(2,3)40-26(36)31-15-19(16-33(17-25(34)35)28(38)41-30(4,5)6)32-27(37)39-18-24-22-13-9-7-11-20(22)21-12-8-10-14-23(21)24/h7-14,19,24H,15-18H2,1-6H3,(H,31,36)(H,32,37)(H,34,35)/t19-/m1/s1

>  <InChIKey>  (76) 
BYSTVELUWMTUHM-LJQANCHMSA-N

$$$$
Hy (Fmoc-Hy-OH / Hydroxyethylglycine Spacer)
     RDKit          2D

 25 27  0  0  0  0  0  0  0  0999 V2000
   -5.9994    0.6747    0.0000 O   0  0  0  0  0  0  0  0  0  0  0  0
   -4.7256    1.4668    0.0000 C   0  0  0  0  0  0  0  0  0  0  0  0
   -4.7748    2.9660    0.0000 O   0  0  0  0  0  0  0  0  0  0  0  0
   -3.4027    0.7598    0.0000 C   0  0  0  0  0  0  0  0  0  0  0  0
   -3.3536   -0.7394    0.0000 N   0  0  0  0  0  0  0  0  0  0  0  0
   -4.6274   -1.5315    0.0000 C   0  0  0  0  0  0  0  0  0  0  0  0
   -5.9503   -0.8245    0.0000 C   0  0  0  0  0  0  0  0  0  0  0  0
   -7.2240   -1.6167    0.0000 O   0  0  0  0  0  0  0  0  0  0  0  0
   -2.0307   -1.4464    0.0000 C   0  0  0  0  0  0  0  0  0  0  0  0
   -1.9815   -2.9456    0.0000 O   0  0  0  0  0  0  0  0  0  0  0  0
   -0.7569   -0.6543    0.0000 O   0  0  0  0  0  0  0  0  0  0  0  0
    0.5660   -1.3613    0.0000 C   0  0  0  0  0  0  0  0  0  0  0  0
    1.8398   -0.5692    0.0000 C   0  0  0  0  0  0  0  0  0  0  0  0
    3.2294   -1.1341    0.0000 C   0  0  0  0  0  0  0  0  0  0  0  0
    3.7394   -2.5447    0.0000 C   0  0  0  0  0  0  0  0  0  0  0  0
    5.2160   -2.8083    0.0000 C   0  0  0  0  0  0  0  0  0  0  0  0
    6.1827   -1.6613    0.0000 C   0  0  0  0  0  0  0  0  0  0  0  0
    5.6726   -0.2507    0.0000 C   0  0  0  0  0  0  0  0  0  0  0  0
    4.1960    0.0129    0.0000 C   0  0  0  0  0  0  0  0  0  0  0  0
    3.4038    1.2867    0.0000 C   0  0  0  0  0  0  0  0  0  0  0  0
    3.8204    2.7277    0.0000 C   0  0  0  0  0  0  0  0  0  0  0  0
    2.7807    3.8090    0.0000 C   0  0  0  0  0  0  0  0  0  0  0  0
    1.3245    3.4492    0.0000 C   0  0  0  0  0  0  0  0  0  0  0  0
    0.9079    2.0082    0.0000 C   0  0  0  0  0  0  0  0  0  0  0  0
    1.9476    0.9269    0.0000 C   0  0  0  0  0  0  0  0  0  0  0  0
  1  2  2  0
  2  3  1  0
  2  4  1  0
  4  5  1  0
  5  6  1  0
  6  7  1  0
  7  8  1  0
  5  9  1  0
  9 10  2  0
  9 11  1  0
 11 12  1  0
 12 13  1  0
 13 14  1  0
 14 15  2  0
 15 16  1  0
 16 17  2  0
 17 18  1  0
 18 19  2  0
 19 20  1  0
 20 21  2  0
 21 22  1  0
 22 23  2  0
 23 24  1  0
 24 25  2  0
 25 13  1  0
 19 14  1  0
 25 20  1  0
M  END
>  <ID>  (77) 
DST-MOD-007

>  <Name>  (77) 
Hy (Fmoc-Hy-OH / Hydroxyethylglycine Spacer)

>  <Primary_Group>  (77) 
9. PEGylated, Cationic & Modified PNA Monomers (Analytical Table 2)

>  <Formula>  (77) 
C19H19NO5

>  <Molecular_Weight>  (77) 
341.36

>  <Exact_Mass>  (77) 
341.1263

>  <IUPAC_Name>  (77) 
2-((((9H-fluoren-9-yl)methoxy)carbonyl)(2-hydroxyethyl)amino)acetic acid

>  <SMILES>  (77) 
O=C(O)CN(CCO)C(=O)OCC1c2ccccc2-c3ccccc31

>  <Functional_Role>  (77) 
Hydroxyethylglycine flexible spacer monomer (RP-HPLC CBU-2 Tr = 5.841 min).

>  <Source_Document>  (77) 
Table 2 PS_Gamma Glu & PS_Gamma Ser

>  <InChI>  (77) 
InChI=1S/C19H19NO5/c21-10-9-20(11-18(22)23)19(24)25-12-17-15-7-3-1-5-13(15)14-6-2-4-8-16(14)17/h1-8,17,21H,9-12H2,(H,22,23)

>  <InChIKey>  (77) 
YTKVOSWIGDVWNX-UHFFFAOYSA-N

$$$$
Dess-Martin Periodinane (DMP)
     RDKit          2D

 22 23  0  0  0  0  0  0  0  0999 V2000
   -0.4764   -3.9968    0.0000 C   0  0  0  0  0  0  0  0  0  0  0  0
   -0.8111   -2.5346    0.0000 C   0  0  0  0  0  0  0  0  0  0  0  0
   -2.2448   -2.0934    0.0000 O   0  0  0  0  0  0  0  0  0  0  0  0
    0.2878   -1.5136    0.0000 O   0  0  0  0  0  0  0  0  0  0  0  0
   -0.0469   -0.0514    0.0000 I   0  0  0  0  0  0  0  0  0  0  0  0
    1.4078   -0.4170    0.0000 C   0  0  0  0  0  0  0  0  0  0  0  0
    2.1096   -1.7428    0.0000 C   0  0  0  0  0  0  0  0  0  0  0  0
    3.6086   -1.7979    0.0000 C   0  0  0  0  0  0  0  0  0  0  0  0
    4.4058   -0.5273    0.0000 C   0  0  0  0  0  0  0  0  0  0  0  0
    3.7040    0.7984    0.0000 C   0  0  0  0  0  0  0  0  0  0  0  0
    2.2051    0.8536    0.0000 C   0  0  0  0  0  0  0  0  0  0  0  0
    1.2430    2.0044    0.0000 C   0  0  0  0  0  0  0  0  0  0  0  0
    1.6086    3.4592    0.0000 O   0  0  0  0  0  0  0  0  0  0  0  0
   -0.1488    1.4451    0.0000 O   0  0  0  0  0  0  0  0  0  0  0  0
   -1.4266    0.5372    0.0000 O   0  0  0  0  0  0  0  0  0  0  0  0
   -1.6067    2.0264    0.0000 C   0  0  0  0  0  0  0  0  0  0  0  0
   -0.4070    2.9269    0.0000 O   0  0  0  0  0  0  0  0  0  0  0  0
   -2.9863    2.6150    0.0000 C   0  0  0  0  0  0  0  0  0  0  0  0
   -1.1978   -1.0135    0.0000 O   0  0  0  0  0  0  0  0  0  0  0  0
   -2.6064   -0.4979    0.0000 C   0  0  0  0  0  0  0  0  0  0  0  0
   -2.8641    0.9798    0.0000 O   0  0  0  0  0  0  0  0  0  0  0  0
   -3.7572   -1.4599    0.0000 C   0  0  0  0  0  0  0  0  0  0  0  0
  1  2  1  0
  2  3  2  0
  2  4  1  0
  4  5  1  0
  5  6  1  0
  6  7  2  0
  7  8  1  0
  8  9  2  0
  9 10  1  0
 10 11  2  0
 11 12  1  0
 12 13  2  0
 12 14  1  0
  5 15  1  0
 15 16  1  0
 16 17  2  0
 16 18  1  0
  5 19  1  0
 19 20  1  0
 20 21  2  0
 20 22  1  0
 14  5  1  0
 11  6  1  0
M  END
>  <ID>  (78) 
DST-SYN-001

>  <Name>  (78) 
Dess-Martin Periodinane (DMP)

>  <Primary_Group>  (78) 
10. Specialized Synthesis Reagents & Organics

>  <Formula>  (78) 
C13H13IO8

>  <Molecular_Weight>  (78) 
424.14

>  <Exact_Mass>  (78) 
423.9655

>  <IUPAC_Name>  (78) 
1,1,1-triacetoxy-1,1-dihydro-1,2-benziodoxol-3(1H)-one

>  <SMILES>  (78) 
CC(=O)OI1(C2=CC=CC=C2C(=O)O1)(OC(=O)C)OC(=O)C

>  <Functional_Role>  (78) 
Mild hypervalent iodine oxidant enabling racemization-free conversion of amino alcohols to α-amino aldehydes in wet DCM.

>  <CAS_Number>  (78) 
87413-09-0

>  <Source_Document>  (78) 
PS_Gamma Glu Step 1 & PS_Gamma Ser Step 2

>  <InChI>  (78) 
InChI=1S/C13H13IO8/c1-8(15)19-14(20-9(2)16,21-10(3)17)12-7-5-4-6-11(12)13(18)22-14/h4-7H,1-3H3

>  <InChIKey>  (78) 
NKLCNNUWBJBICK-UHFFFAOYSA-N

$$$$
Sodium Cyanoborohydride (NaBH3CN)
     RDKit          2D

  4  2  0  0  0  0  0  0  0  0999 V2000
    0.0000    1.0000    0.0000 Na  0  0  0  0  0 15  0  0  0  0  0  0
   -1.5000    0.0000    0.0000 B   0  0  0  0  0  0  0  0  0  0  0  0
    0.0000    0.0000    0.0000 C   0  0  0  0  0  0  0  0  0  0  0  0
    1.5000   -0.0000    0.0000 N   0  0  0  0  0  0  0  0  0  0  0  0
  2  3  1  0
  3  4  3  0
M  CHG  2   1   1   2  -1
M  END
>  <ID>  (79) 
DST-SYN-002

>  <Name>  (79) 
Sodium Cyanoborohydride (NaBH3CN)

>  <Primary_Group>  (79) 
10. Specialized Synthesis Reagents & Organics

>  <Formula>  (79) 
CH3BNNa

>  <Molecular_Weight>  (79) 
62.84

>  <Exact_Mass>  (79) 
63.0256

>  <IUPAC_Name>  (79) 
sodium cyanoborohydride

>  <SMILES>  (79) 
[Na+].[BH3-]C#N

>  <Functional_Role>  (79) 
Chemoselective reducing agent for reductive amination of α-amino aldehydes with glycine methyl ester.

>  <CAS_Number>  (79) 
25895-60-7

>  <Source_Document>  (79) 
PS_Gamma Glu Step 2 & PS_Gamma Ser Step 3

>  <InChI>  (79) 
InChI=1S/CH3BN.Na/c2-1-3;/h2H3;/q-1;+1

>  <InChIKey>  (79) 
CVDUGUOQTVTBJH-UHFFFAOYSA-N

$$$$
Isobutyl Chloroformate (IBCF)
     RDKit          2D

  8  7  0  0  0  0  0  0  0  0999 V2000
   -3.1182    0.9820    0.0000 C   0  0  0  0  0  0  0  0  0  0  0  0
   -1.9843    0.0000    0.0000 C   0  0  0  0  0  0  0  0  0  0  0  0
   -2.2678   -1.4730    0.0000 C   0  0  0  0  0  0  0  0  0  0  0  0
   -0.5669    0.4910    0.0000 C   0  0  0  0  0  0  0  0  0  0  0  0
    0.5669   -0.4910    0.0000 O   0  0  0  0  0  0  0  0  0  0  0  0
    1.9843    0.0000    0.0000 C   0  0  0  0  0  0  0  0  0  0  0  0
    3.1182   -0.9820    0.0000 O   0  0  0  0  0  0  0  0  0  0  0  0
    2.2678    1.4730    0.0000 Cl  0  0  0  0  0  0  0  0  0  0  0  0
  1  2  1  0
  2  3  1  0
  2  4  1  0
  4  5  1  0
  5  6  1  0
  6  7  2  0
  6  8  1  0
M  END
>  <ID>  (80) 
DST-SYN-003

>  <Name>  (80) 
Isobutyl Chloroformate (IBCF)

>  <Primary_Group>  (80) 
10. Specialized Synthesis Reagents & Organics

>  <Formula>  (80) 
C5H9ClO2

>  <Molecular_Weight>  (80) 
136.58

>  <Exact_Mass>  (80) 
136.0291

>  <IUPAC_Name>  (80) 
isobutyl carbonochloridate

>  <SMILES>  (80) 
CC(C)COC(=O)Cl

>  <Functional_Role>  (80) 
Reagent for generating mixed carbonic anhydrides for reduction of carboxylic acids to alcohols with NaBH4.

>  <CAS_Number>  (80) 
543-27-1

>  <Source_Document>  (80) 
PS_Gamma Ser Step 1

>  <InChI>  (80) 
InChI=1S/C5H9ClO2/c1-4(2)3-8-5(6)7/h4H,3H2,1-2H3

>  <InChIKey>  (80) 
YOETUEMZNOLGDB-UHFFFAOYSA-N

$$$$
Glycine Methyl Ester Hydrochloride
     RDKit          2D

  7  5  0  0  0  0  0  0  0  0999 V2000
   -2.5981    0.0000    0.0000 C   0  0  0  0  0  0  0  0  0  0  0  0
   -1.2990    0.7500    0.0000 O   0  0  0  0  0  0  0  0  0  0  0  0
    0.0000   -0.0000    0.0000 C   0  0  0  0  0  0  0  0  0  0  0  0
    0.0000   -1.5000    0.0000 O   0  0  0  0  0  0  0  0  0  0  0  0
    1.2990    0.7500    0.0000 C   0  0  0  0  0  0  0  0  0  0  0  0
    2.5981   -0.0000    0.0000 N   0  0  0  0  0  0  0  0  0  0  0  0
    0.0000    1.7500    0.0000 Cl  0  0  0  0  0  0  0  0  0  0  0  0
  1  2  1  0
  2  3  1  0
  3  4  2  0
  3  5  1  0
  5  6  1  0
M  END
>  <ID>  (81) 
DST-SYN-004

>  <Name>  (81) 
Glycine Methyl Ester Hydrochloride

>  <Primary_Group>  (81) 
10. Specialized Synthesis Reagents & Organics

>  <Formula>  (81) 
C3H8ClNO2

>  <Molecular_Weight>  (81) 
125.56

>  <Exact_Mass>  (81) 
125.0244

>  <IUPAC_Name>  (81) 
methyl 2-aminoacetate hydrochloride

>  <SMILES>  (81) 
COC(=O)CN.Cl

>  <Functional_Role>  (81) 
Primary amine building block forming the glycine segment of the pseudopeptide PNA backbone.

>  <CAS_Number>  (81) 
5680-79-5

>  <Source_Document>  (81) 
PS_Gamma Glu Step 2 & PS_Gamma Ser Step 3

>  <InChI>  (81) 
InChI=1S/C3H7NO2.ClH/c1-6-3(5)2-4;/h2,4H2,1H3;1H

>  <InChIKey>  (81) 
COQRGFWWJBEXRC-UHFFFAOYSA-N

$$$$
